/*---------------------------------------------------------------------------*\
| =========                 |                                                 |
| \\      /  F ield         | OpenFOAM: The Open Source CFD Toolbox           |
|  \\    /   O peration     | Version:  2.1.1                                 |
|   \\  /    A nd           | Web:      www.OpenFOAM.org                      |
|    \\/     M anipulation  |                                                 |
\*---------------------------------------------------------------------------*/
Build  : 2.1.1-221db2718bbb
Exec   : simpleFoam
Date   : Aug 27 2012
Time   : 07:21:18
Host   : "nathan-Latitude-D820"
PID    : 13946
Case   : /home/nathan/Desktop/Thesis/Benchmark-4-Airbox2/iter_0059
nProcs : 1
sigFpe : Enabling floating point exception trapping (FOAM_SIGFPE).
fileModificationChecking : Monitoring run-time modified files using timeStampMaster
allowSystemOperations : Disallowing user-supplied system call operations

// * * * * * * * * * * * * * * * * * * * * * * * * * * * * * * * * * * * * * //
Create time

Create mesh for time = 0

Reading field p

Reading field U

Reading/calculating face flux field phi

Selecting incompressible transport model Newtonian
Selecting RAS turbulence model kOmegaSST
kOmegaSSTCoeffs
{
    alphaK1         0.85034;
    alphaK2         1;
    alphaOmega1     0.5;
    alphaOmega2     0.85616;
    gamma1          0.5532;
    gamma2          0.4403;
    beta1           0.075;
    beta2           0.0828;
    betaStar        0.09;
    a1              0.31;
    c1              10;
}

No field sources present


SIMPLE: no convergence criteria found. Calculations will run for 300 steps.


Starting time loop

Reading surface description:
    abInlet

Reading surface description:
    abOutlet

Time = 1

smoothSolver:  Solving for Ux, Initial residual = 0.0676582, Final residual = 0.00390787, No Iterations 4
smoothSolver:  Solving for Uy, Initial residual = 0.166859, Final residual = 0.0150072, No Iterations 3
smoothSolver:  Solving for Uz, Initial residual = 0.0878575, Final residual = 0.00434438, No Iterations 4
GAMG:  Solving for p, Initial residual = 0.732131, Final residual = 0.0430011, No Iterations 4
time step continuity errors : sum local = 2.44921, global = 0.0619921, cumulative = 0.0619921
smoothSolver:  Solving for omega, Initial residual = 0.00978148, Final residual = 0.00080255, No Iterations 3
bounding omega, min: -711.641 max: 1.2864e+06 average: 15978.7
smoothSolver:  Solving for k, Initial residual = 1, Final residual = 0.0665857, No Iterations 3
ExecutionTime = 3.5 s  ClockTime = 3 s

Time = 2

smoothSolver:  Solving for Ux, Initial residual = 0.0279025, Final residual = 0.00132878, No Iterations 4
smoothSolver:  Solving for Uy, Initial residual = 0.0701882, Final residual = 0.00580037, No Iterations 3
smoothSolver:  Solving for Uz, Initial residual = 0.0388951, Final residual = 0.00373602, No Iterations 3
GAMG:  Solving for p, Initial residual = 0.0407495, Final residual = 0.0040573, No Iterations 3
time step continuity errors : sum local = 4.08986, global = 0.365485, cumulative = 0.427477
smoothSolver:  Solving for omega, Initial residual = 0.00628538, Final residual = 0.000515929, No Iterations 3
smoothSolver:  Solving for k, Initial residual = 0.25487, Final residual = 0.0142867, No Iterations 3
ExecutionTime = 4.39 s  ClockTime = 4 s

Time = 3

smoothSolver:  Solving for Ux, Initial residual = 0.0298864, Final residual = 0.00149131, No Iterations 4
smoothSolver:  Solving for Uy, Initial residual = 0.0678988, Final residual = 0.00329976, No Iterations 4
smoothSolver:  Solving for Uz, Initial residual = 0.0519589, Final residual = 0.00484114, No Iterations 3
GAMG:  Solving for p, Initial residual = 0.0213007, Final residual = 0.00130562, No Iterations 3
time step continuity errors : sum local = 2.04026, global = 0.213957, cumulative = 0.641434
smoothSolver:  Solving for omega, Initial residual = 0.00527762, Final residual = 0.000415122, No Iterations 3
smoothSolver:  Solving for k, Initial residual = 0.108519, Final residual = 0.0062911, No Iterations 3
ExecutionTime = 5.3 s  ClockTime = 5 s

Time = 4

smoothSolver:  Solving for Ux, Initial residual = 0.0286091, Final residual = 0.00157824, No Iterations 4
smoothSolver:  Solving for Uy, Initial residual = 0.0531692, Final residual = 0.0026916, No Iterations 4
smoothSolver:  Solving for Uz, Initial residual = 0.0507251, Final residual = 0.0048493, No Iterations 3
GAMG:  Solving for p, Initial residual = 0.020229, Final residual = 0.00148603, No Iterations 3
time step continuity errors : sum local = 2.45389, global = 0.231269, cumulative = 0.872703
smoothSolver:  Solving for omega, Initial residual = 0.00439027, Final residual = 0.000327202, No Iterations 3
smoothSolver:  Solving for k, Initial residual = 0.0593537, Final residual = 0.00401249, No Iterations 3
ExecutionTime = 6.2 s  ClockTime = 6 s

Time = 5

smoothSolver:  Solving for Ux, Initial residual = 0.0157873, Final residual = 0.00153869, No Iterations 3
smoothSolver:  Solving for Uy, Initial residual = 0.03324, Final residual = 0.00311034, No Iterations 3
smoothSolver:  Solving for Uz, Initial residual = 0.0290894, Final residual = 0.00271957, No Iterations 3
GAMG:  Solving for p, Initial residual = 0.0213486, Final residual = 0.00176613, No Iterations 3
time step continuity errors : sum local = 2.39827, global = -0.0629764, cumulative = 0.809726
smoothSolver:  Solving for omega, Initial residual = 0.00354284, Final residual = 0.000260987, No Iterations 3
smoothSolver:  Solving for k, Initial residual = 0.0425618, Final residual = 0.00321236, No Iterations 3
ExecutionTime = 7.09 s  ClockTime = 7 s

Time = 6

smoothSolver:  Solving for Ux, Initial residual = 0.0202761, Final residual = 0.00202636, No Iterations 3
smoothSolver:  Solving for Uy, Initial residual = 0.0419371, Final residual = 0.00205508, No Iterations 4
smoothSolver:  Solving for Uz, Initial residual = 0.0306302, Final residual = 0.00158497, No Iterations 4
GAMG:  Solving for p, Initial residual = 0.0243943, Final residual = 0.00154761, No Iterations 3
time step continuity errors : sum local = 1.65944, global = -0.122705, cumulative = 0.687022
smoothSolver:  Solving for omega, Initial residual = 0.00299241, Final residual = 0.00021883, No Iterations 3
smoothSolver:  Solving for k, Initial residual = 0.0359177, Final residual = 0.002816, No Iterations 3
ExecutionTime = 7.99 s  ClockTime = 8 s

Time = 7

smoothSolver:  Solving for Ux, Initial residual = 0.02501, Final residual = 0.00124712, No Iterations 4
smoothSolver:  Solving for Uy, Initial residual = 0.04046, Final residual = 0.00205934, No Iterations 4
smoothSolver:  Solving for Uz, Initial residual = 0.0305728, Final residual = 0.00164226, No Iterations 4
GAMG:  Solving for p, Initial residual = 0.0299451, Final residual = 0.00245702, No Iterations 3
time step continuity errors : sum local = 2.04455, global = -0.120775, cumulative = 0.566247
smoothSolver:  Solving for omega, Initial residual = 0.00257273, Final residual = 0.000187744, No Iterations 3
smoothSolver:  Solving for k, Initial residual = 0.0324185, Final residual = 0.00253925, No Iterations 3
ExecutionTime = 8.89 s  ClockTime = 9 s

Time = 8

smoothSolver:  Solving for Ux, Initial residual = 0.0216862, Final residual = 0.00113952, No Iterations 4
smoothSolver:  Solving for Uy, Initial residual = 0.0338492, Final residual = 0.00172162, No Iterations 4
smoothSolver:  Solving for Uz, Initial residual = 0.0219672, Final residual = 0.00111118, No Iterations 4
GAMG:  Solving for p, Initial residual = 0.0298968, Final residual = 0.00256678, No Iterations 3
time step continuity errors : sum local = 1.82838, global = -0.197008, cumulative = 0.369239
smoothSolver:  Solving for omega, Initial residual = 0.0023556, Final residual = 0.00016896, No Iterations 3
smoothSolver:  Solving for k, Initial residual = 0.0298855, Final residual = 0.00233559, No Iterations 3
ExecutionTime = 9.8 s  ClockTime = 10 s

Time = 9

smoothSolver:  Solving for Ux, Initial residual = 0.016918, Final residual = 0.000841439, No Iterations 4
smoothSolver:  Solving for Uy, Initial residual = 0.0354869, Final residual = 0.00197542, No Iterations 4
smoothSolver:  Solving for Uz, Initial residual = 0.0218747, Final residual = 0.00213104, No Iterations 3
GAMG:  Solving for p, Initial residual = 0.028745, Final residual = 0.00192679, No Iterations 3
time step continuity errors : sum local = 1.29943, global = 0.0261867, cumulative = 0.395426
smoothSolver:  Solving for omega, Initial residual = 0.00217839, Final residual = 0.000157532, No Iterations 3
smoothSolver:  Solving for k, Initial residual = 0.0285638, Final residual = 0.00221925, No Iterations 3
ExecutionTime = 10.71 s  ClockTime = 11 s

Time = 10

smoothSolver:  Solving for Ux, Initial residual = 0.0152342, Final residual = 0.000759865, No Iterations 4
smoothSolver:  Solving for Uy, Initial residual = 0.0316088, Final residual = 0.00178018, No Iterations 4
smoothSolver:  Solving for Uz, Initial residual = 0.0227418, Final residual = 0.00223912, No Iterations 3
GAMG:  Solving for p, Initial residual = 0.0294334, Final residual = 0.00213127, No Iterations 3
time step continuity errors : sum local = 1.39181, global = 0.0986479, cumulative = 0.494074
smoothSolver:  Solving for omega, Initial residual = 0.00203838, Final residual = 0.00014611, No Iterations 3
smoothSolver:  Solving for k, Initial residual = 0.0275221, Final residual = 0.00213993, No Iterations 3
ExecutionTime = 11.6 s  ClockTime = 11 s

Time = 11

smoothSolver:  Solving for Ux, Initial residual = 0.0136923, Final residual = 0.000698995, No Iterations 4
smoothSolver:  Solving for Uy, Initial residual = 0.0213688, Final residual = 0.00102721, No Iterations 4
smoothSolver:  Solving for Uz, Initial residual = 0.0186979, Final residual = 0.00184932, No Iterations 3
GAMG:  Solving for p, Initial residual = 0.0275624, Final residual = 0.00237199, No Iterations 3
time step continuity errors : sum local = 1.53031, global = 0.0613755, cumulative = 0.555449
smoothSolver:  Solving for omega, Initial residual = 0.00193565, Final residual = 0.000138984, No Iterations 3
smoothSolver:  Solving for k, Initial residual = 0.0267251, Final residual = 0.0020703, No Iterations 3
ExecutionTime = 12.5 s  ClockTime = 12 s

Time = 12

smoothSolver:  Solving for Ux, Initial residual = 0.012837, Final residual = 0.000657986, No Iterations 4
smoothSolver:  Solving for Uy, Initial residual = 0.0171098, Final residual = 0.00161866, No Iterations 3
smoothSolver:  Solving for Uz, Initial residual = 0.0174197, Final residual = 0.000867462, No Iterations 4
GAMG:  Solving for p, Initial residual = 0.0250229, Final residual = 0.0017272, No Iterations 3
time step continuity errors : sum local = 1.11382, global = 0.0443396, cumulative = 0.599789
smoothSolver:  Solving for omega, Initial residual = 0.00183628, Final residual = 0.000130217, No Iterations 3
smoothSolver:  Solving for k, Initial residual = 0.0256425, Final residual = 0.00198251, No Iterations 3
ExecutionTime = 13.41 s  ClockTime = 13 s

Time = 13

smoothSolver:  Solving for Ux, Initial residual = 0.0129935, Final residual = 0.000676404, No Iterations 4
smoothSolver:  Solving for Uy, Initial residual = 0.0171808, Final residual = 0.000844305, No Iterations 4
smoothSolver:  Solving for Uz, Initial residual = 0.0184409, Final residual = 0.0010288, No Iterations 4
GAMG:  Solving for p, Initial residual = 0.024148, Final residual = 0.00147433, No Iterations 3
time step continuity errors : sum local = 0.928264, global = -0.0731447, cumulative = 0.526644
smoothSolver:  Solving for omega, Initial residual = 0.00168515, Final residual = 0.000116727, No Iterations 3
smoothSolver:  Solving for k, Initial residual = 0.0244937, Final residual = 0.00186411, No Iterations 3
ExecutionTime = 14.32 s  ClockTime = 14 s

Time = 14

smoothSolver:  Solving for Ux, Initial residual = 0.0130074, Final residual = 0.000689247, No Iterations 4
smoothSolver:  Solving for Uy, Initial residual = 0.0171798, Final residual = 0.000884549, No Iterations 4
smoothSolver:  Solving for Uz, Initial residual = 0.0174707, Final residual = 0.00100181, No Iterations 4
GAMG:  Solving for p, Initial residual = 0.0239421, Final residual = 0.00174441, No Iterations 3
time step continuity errors : sum local = 1.0376, global = -0.0960412, cumulative = 0.430603
smoothSolver:  Solving for omega, Initial residual = 0.00154421, Final residual = 0.000105423, No Iterations 3
smoothSolver:  Solving for k, Initial residual = 0.0238094, Final residual = 0.00175298, No Iterations 3
ExecutionTime = 15.22 s  ClockTime = 15 s

Time = 15

smoothSolver:  Solving for Ux, Initial residual = 0.0128776, Final residual = 0.000705819, No Iterations 4
smoothSolver:  Solving for Uy, Initial residual = 0.0186055, Final residual = 0.00101189, No Iterations 4
smoothSolver:  Solving for Uz, Initial residual = 0.0173624, Final residual = 0.000983924, No Iterations 4
GAMG:  Solving for p, Initial residual = 0.0245018, Final residual = 0.00158626, No Iterations 3
time step continuity errors : sum local = 0.865392, global = -0.0814413, cumulative = 0.349162
smoothSolver:  Solving for omega, Initial residual = 0.00142007, Final residual = 9.70004e-05, No Iterations 3
smoothSolver:  Solving for k, Initial residual = 0.0233143, Final residual = 0.00168235, No Iterations 3
ExecutionTime = 16.12 s  ClockTime = 16 s

Time = 16

smoothSolver:  Solving for Ux, Initial residual = 0.0129567, Final residual = 0.000742801, No Iterations 4
smoothSolver:  Solving for Uy, Initial residual = 0.0195975, Final residual = 0.00111336, No Iterations 4
smoothSolver:  Solving for Uz, Initial residual = 0.0179732, Final residual = 0.000997124, No Iterations 4
GAMG:  Solving for p, Initial residual = 0.0261397, Final residual = 0.00148975, No Iterations 3
time step continuity errors : sum local = 0.725537, global = -0.0128852, cumulative = 0.336276
smoothSolver:  Solving for omega, Initial residual = 0.00131863, Final residual = 9.11086e-05, No Iterations 3
smoothSolver:  Solving for k, Initial residual = 0.0228636, Final residual = 0.00165747, No Iterations 3
ExecutionTime = 17.03 s  ClockTime = 17 s

Time = 17

smoothSolver:  Solving for Ux, Initial residual = 0.0131862, Final residual = 0.000769644, No Iterations 4
smoothSolver:  Solving for Uy, Initial residual = 0.018303, Final residual = 0.00101818, No Iterations 4
smoothSolver:  Solving for Uz, Initial residual = 0.0174974, Final residual = 0.000955317, No Iterations 4
GAMG:  Solving for p, Initial residual = 0.0274622, Final residual = 0.001597, No Iterations 3
time step continuity errors : sum local = 0.711699, global = 0.0258571, cumulative = 0.362133
smoothSolver:  Solving for omega, Initial residual = 0.00125038, Final residual = 8.77264e-05, No Iterations 3
smoothSolver:  Solving for k, Initial residual = 0.0227206, Final residual = 0.00166552, No Iterations 3
ExecutionTime = 17.94 s  ClockTime = 18 s

Time = 18

smoothSolver:  Solving for Ux, Initial residual = 0.0132517, Final residual = 0.000773224, No Iterations 4
smoothSolver:  Solving for Uy, Initial residual = 0.0163424, Final residual = 0.000870234, No Iterations 4
smoothSolver:  Solving for Uz, Initial residual = 0.0170803, Final residual = 0.000934402, No Iterations 4
GAMG:  Solving for p, Initial residual = 0.0274662, Final residual = 0.00268337, No Iterations 2
time step continuity errors : sum local = 1.15269, global = 0.11972, cumulative = 0.481853
smoothSolver:  Solving for omega, Initial residual = 0.00120009, Final residual = 8.49122e-05, No Iterations 3
smoothSolver:  Solving for k, Initial residual = 0.0226798, Final residual = 0.00167463, No Iterations 3
ExecutionTime = 18.81 s  ClockTime = 19 s

Time = 19

smoothSolver:  Solving for Ux, Initial residual = 0.0133527, Final residual = 0.000780227, No Iterations 4
smoothSolver:  Solving for Uy, Initial residual = 0.0152758, Final residual = 0.000798875, No Iterations 4
smoothSolver:  Solving for Uz, Initial residual = 0.0171232, Final residual = 0.000956641, No Iterations 4
GAMG:  Solving for p, Initial residual = 0.027059, Final residual = 0.0025666, No Iterations 2
time step continuity errors : sum local = 1.07841, global = 0.0852092, cumulative = 0.567063
smoothSolver:  Solving for omega, Initial residual = 0.00116854, Final residual = 8.16219e-05, No Iterations 3
smoothSolver:  Solving for k, Initial residual = 0.0224907, Final residual = 0.0016651, No Iterations 3
ExecutionTime = 19.7 s  ClockTime = 20 s

Time = 20

smoothSolver:  Solving for Ux, Initial residual = 0.013571, Final residual = 0.000790899, No Iterations 4
smoothSolver:  Solving for Uy, Initial residual = 0.0149264, Final residual = 0.00078525, No Iterations 4
smoothSolver:  Solving for Uz, Initial residual = 0.0177469, Final residual = 0.00102017, No Iterations 4
GAMG:  Solving for p, Initial residual = 0.0265753, Final residual = 0.00243951, No Iterations 2
time step continuity errors : sum local = 1.00771, global = -0.00240534, cumulative = 0.564657
smoothSolver:  Solving for omega, Initial residual = 0.00112006, Final residual = 7.79255e-05, No Iterations 3
smoothSolver:  Solving for k, Initial residual = 0.0221798, Final residual = 0.00164773, No Iterations 3
ExecutionTime = 20.58 s  ClockTime = 20 s

Time = 21

smoothSolver:  Solving for Ux, Initial residual = 0.0137379, Final residual = 0.000799374, No Iterations 4
smoothSolver:  Solving for Uy, Initial residual = 0.015136, Final residual = 0.000806208, No Iterations 4
smoothSolver:  Solving for Uz, Initial residual = 0.0186464, Final residual = 0.00109429, No Iterations 4
GAMG:  Solving for p, Initial residual = 0.026502, Final residual = 0.00250883, No Iterations 2
time step continuity errors : sum local = 1.02025, global = -0.111564, cumulative = 0.453093
smoothSolver:  Solving for omega, Initial residual = 0.0010802, Final residual = 7.45174e-05, No Iterations 3
smoothSolver:  Solving for k, Initial residual = 0.0221727, Final residual = 0.00164492, No Iterations 3
ExecutionTime = 21.45 s  ClockTime = 21 s

Time = 22

smoothSolver:  Solving for Ux, Initial residual = 0.0139587, Final residual = 0.000812585, No Iterations 4
smoothSolver:  Solving for Uy, Initial residual = 0.0154538, Final residual = 0.000840102, No Iterations 4
smoothSolver:  Solving for Uz, Initial residual = 0.0195607, Final residual = 0.00115625, No Iterations 4
GAMG:  Solving for p, Initial residual = 0.0270672, Final residual = 0.00270264, No Iterations 2
time step continuity errors : sum local = 1.07907, global = -0.166827, cumulative = 0.286266
smoothSolver:  Solving for omega, Initial residual = 0.00104768, Final residual = 7.16157e-05, No Iterations 3
smoothSolver:  Solving for k, Initial residual = 0.0224631, Final residual = 0.00166382, No Iterations 3
ExecutionTime = 22.33 s  ClockTime = 22 s

Time = 23

smoothSolver:  Solving for Ux, Initial residual = 0.0144767, Final residual = 0.000844944, No Iterations 4
smoothSolver:  Solving for Uy, Initial residual = 0.0158495, Final residual = 0.000877812, No Iterations 4
smoothSolver:  Solving for Uz, Initial residual = 0.0201635, Final residual = 0.00119472, No Iterations 4
GAMG:  Solving for p, Initial residual = 0.0282469, Final residual = 0.00170922, No Iterations 3
time step continuity errors : sum local = 0.661394, global = -0.0415578, cumulative = 0.244708
smoothSolver:  Solving for omega, Initial residual = 0.00100307, Final residual = 6.87052e-05, No Iterations 3
smoothSolver:  Solving for k, Initial residual = 0.0224003, Final residual = 0.00168174, No Iterations 3
ExecutionTime = 23.24 s  ClockTime = 23 s

Time = 24

smoothSolver:  Solving for Ux, Initial residual = 0.0156218, Final residual = 0.000928275, No Iterations 4
smoothSolver:  Solving for Uy, Initial residual = 0.0164005, Final residual = 0.000938394, No Iterations 4
smoothSolver:  Solving for Uz, Initial residual = 0.020266, Final residual = 0.00119325, No Iterations 4
GAMG:  Solving for p, Initial residual = 0.0311717, Final residual = 0.00291548, No Iterations 2
time step continuity errors : sum local = 1.0421, global = -0.0771772, cumulative = 0.167531
smoothSolver:  Solving for omega, Initial residual = 0.00096922, Final residual = 6.60278e-05, No Iterations 3
smoothSolver:  Solving for k, Initial residual = 0.0225687, Final residual = 0.0017119, No Iterations 3
ExecutionTime = 24.13 s  ClockTime = 24 s

Time = 25

smoothSolver:  Solving for Ux, Initial residual = 0.0164285, Final residual = 0.000986284, No Iterations 4
smoothSolver:  Solving for Uy, Initial residual = 0.0164961, Final residual = 0.000958742, No Iterations 4
smoothSolver:  Solving for Uz, Initial residual = 0.0198827, Final residual = 0.00117282, No Iterations 4
GAMG:  Solving for p, Initial residual = 0.0335895, Final residual = 0.00286935, No Iterations 2
time step continuity errors : sum local = 0.966382, global = -0.0706967, cumulative = 0.0968341
smoothSolver:  Solving for omega, Initial residual = 0.000933539, Final residual = 6.47414e-05, No Iterations 3
smoothSolver:  Solving for k, Initial residual = 0.0228757, Final residual = 0.001753, No Iterations 3
ExecutionTime = 25 s  ClockTime = 25 s

Time = 26

smoothSolver:  Solving for Ux, Initial residual = 0.0169157, Final residual = 0.00102351, No Iterations 4
smoothSolver:  Solving for Uy, Initial residual = 0.0163889, Final residual = 0.000958184, No Iterations 4
smoothSolver:  Solving for Uz, Initial residual = 0.0195225, Final residual = 0.00116355, No Iterations 4
GAMG:  Solving for p, Initial residual = 0.0355445, Final residual = 0.00263486, No Iterations 2
time step continuity errors : sum local = 0.848282, global = -0.0596407, cumulative = 0.0371933
smoothSolver:  Solving for omega, Initial residual = 0.000904826, Final residual = 6.34608e-05, No Iterations 3
smoothSolver:  Solving for k, Initial residual = 0.0230389, Final residual = 0.00179965, No Iterations 3
ExecutionTime = 25.88 s  ClockTime = 26 s

Time = 27

smoothSolver:  Solving for Ux, Initial residual = 0.0170356, Final residual = 0.00102745, No Iterations 4
smoothSolver:  Solving for Uy, Initial residual = 0.0162299, Final residual = 0.000945332, No Iterations 4
smoothSolver:  Solving for Uz, Initial residual = 0.0195979, Final residual = 0.0011815, No Iterations 4
GAMG:  Solving for p, Initial residual = 0.0367185, Final residual = 0.0025938, No Iterations 2
time step continuity errors : sum local = 0.82023, global = -0.100522, cumulative = -0.0633287
smoothSolver:  Solving for omega, Initial residual = 0.000874686, Final residual = 6.28447e-05, No Iterations 3
smoothSolver:  Solving for k, Initial residual = 0.0236594, Final residual = 0.00185192, No Iterations 3
ExecutionTime = 26.77 s  ClockTime = 27 s

Time = 28

smoothSolver:  Solving for Ux, Initial residual = 0.0170943, Final residual = 0.0010251, No Iterations 4
smoothSolver:  Solving for Uy, Initial residual = 0.0160147, Final residual = 0.000927301, No Iterations 4
smoothSolver:  Solving for Uz, Initial residual = 0.0198399, Final residual = 0.00120566, No Iterations 4
GAMG:  Solving for p, Initial residual = 0.0373545, Final residual = 0.00275942, No Iterations 2
time step continuity errors : sum local = 0.86864, global = -0.151747, cumulative = -0.215076
smoothSolver:  Solving for omega, Initial residual = 0.000855669, Final residual = 6.19342e-05, No Iterations 3
smoothSolver:  Solving for k, Initial residual = 0.0238897, Final residual = 0.00189326, No Iterations 3
ExecutionTime = 27.64 s  ClockTime = 28 s

Time = 29

smoothSolver:  Solving for Ux, Initial residual = 0.0172743, Final residual = 0.00103027, No Iterations 4
smoothSolver:  Solving for Uy, Initial residual = 0.0158693, Final residual = 0.000915389, No Iterations 4
smoothSolver:  Solving for Uz, Initial residual = 0.0202309, Final residual = 0.00122976, No Iterations 4
GAMG:  Solving for p, Initial residual = 0.0381908, Final residual = 0.00299746, No Iterations 2
time step continuity errors : sum local = 0.943893, global = -0.172433, cumulative = -0.387508
smoothSolver:  Solving for omega, Initial residual = 0.000844781, Final residual = 6.15982e-05, No Iterations 3
smoothSolver:  Solving for k, Initial residual = 0.0242439, Final residual = 0.00192587, No Iterations 3
ExecutionTime = 28.52 s  ClockTime = 28 s

Time = 30

smoothSolver:  Solving for Ux, Initial residual = 0.0175495, Final residual = 0.00104874, No Iterations 4
smoothSolver:  Solving for Uy, Initial residual = 0.0158921, Final residual = 0.000917493, No Iterations 4
smoothSolver:  Solving for Uz, Initial residual = 0.0205209, Final residual = 0.00124235, No Iterations 4
GAMG:  Solving for p, Initial residual = 0.039582, Final residual = 0.00323374, No Iterations 2
time step continuity errors : sum local = 1.01679, global = -0.160353, cumulative = -0.547862
smoothSolver:  Solving for omega, Initial residual = 0.000817307, Final residual = 6.08594e-05, No Iterations 3
smoothSolver:  Solving for k, Initial residual = 0.0244487, Final residual = 0.00197725, No Iterations 3
ExecutionTime = 29.4 s  ClockTime = 29 s

Time = 31

smoothSolver:  Solving for Ux, Initial residual = 0.0178801, Final residual = 0.001078, No Iterations 4
smoothSolver:  Solving for Uy, Initial residual = 0.0158783, Final residual = 0.000925436, No Iterations 4
smoothSolver:  Solving for Uz, Initial residual = 0.0204752, Final residual = 0.00123772, No Iterations 4
GAMG:  Solving for p, Initial residual = 0.0411074, Final residual = 0.00332332, No Iterations 2
time step continuity errors : sum local = 1.03608, global = -0.141044, cumulative = -0.688905
smoothSolver:  Solving for omega, Initial residual = 0.000796217, Final residual = 5.98491e-05, No Iterations 3
smoothSolver:  Solving for k, Initial residual = 0.0248326, Final residual = 0.00203371, No Iterations 3
ExecutionTime = 30.27 s  ClockTime = 30 s

Time = 32

smoothSolver:  Solving for Ux, Initial residual = 0.0182505, Final residual = 0.00111025, No Iterations 4
smoothSolver:  Solving for Uy, Initial residual = 0.0158438, Final residual = 0.000926267, No Iterations 4
smoothSolver:  Solving for Uz, Initial residual = 0.0199914, Final residual = 0.00120535, No Iterations 4
GAMG:  Solving for p, Initial residual = 0.0428739, Final residual = 0.0032193, No Iterations 2
time step continuity errors : sum local = 0.985186, global = -0.124383, cumulative = -0.813288
smoothSolver:  Solving for omega, Initial residual = 0.000773539, Final residual = 5.96448e-05, No Iterations 3
smoothSolver:  Solving for k, Initial residual = 0.0251685, Final residual = 0.00210405, No Iterations 3
ExecutionTime = 31.15 s  ClockTime = 31 s

Time = 33

smoothSolver:  Solving for Ux, Initial residual = 0.0185252, Final residual = 0.00113414, No Iterations 4
smoothSolver:  Solving for Uy, Initial residual = 0.0157219, Final residual = 0.000918799, No Iterations 4
smoothSolver:  Solving for Uz, Initial residual = 0.0192812, Final residual = 0.0011582, No Iterations 4
GAMG:  Solving for p, Initial residual = 0.0444338, Final residual = 0.00298052, No Iterations 2
time step continuity errors : sum local = 0.898793, global = -0.103559, cumulative = -0.916847
smoothSolver:  Solving for omega, Initial residual = 0.00075739, Final residual = 5.89087e-05, No Iterations 3
smoothSolver:  Solving for k, Initial residual = 0.025562, Final residual = 0.00218229, No Iterations 3
ExecutionTime = 32.03 s  ClockTime = 32 s

Time = 34

smoothSolver:  Solving for Ux, Initial residual = 0.0185882, Final residual = 0.00113851, No Iterations 4
smoothSolver:  Solving for Uy, Initial residual = 0.0154619, Final residual = 0.000896291, No Iterations 4
smoothSolver:  Solving for Uz, Initial residual = 0.0187052, Final residual = 0.00111914, No Iterations 4
GAMG:  Solving for p, Initial residual = 0.0449376, Final residual = 0.00270345, No Iterations 2
time step continuity errors : sum local = 0.8171, global = -0.0831302, cumulative = -0.999977
smoothSolver:  Solving for omega, Initial residual = 0.000745073, Final residual = 5.7892e-05, No Iterations 3
smoothSolver:  Solving for k, Initial residual = 0.0261434, Final residual = 0.00226492, No Iterations 3
ExecutionTime = 32.91 s  ClockTime = 33 s

Time = 35

smoothSolver:  Solving for Ux, Initial residual = 0.0184698, Final residual = 0.00112933, No Iterations 4
smoothSolver:  Solving for Uy, Initial residual = 0.0151102, Final residual = 0.00086417, No Iterations 4
smoothSolver:  Solving for Uz, Initial residual = 0.0183876, Final residual = 0.00109732, No Iterations 4
GAMG:  Solving for p, Initial residual = 0.0446095, Final residual = 0.00259746, No Iterations 2
time step continuity errors : sum local = 0.801385, global = -0.092522, cumulative = -1.0925
smoothSolver:  Solving for omega, Initial residual = 0.000723877, Final residual = 5.63811e-05, No Iterations 3
smoothSolver:  Solving for k, Initial residual = 0.026618, Final residual = 0.0023457, No Iterations 3
ExecutionTime = 33.79 s  ClockTime = 34 s

Time = 36

smoothSolver:  Solving for Ux, Initial residual = 0.0183253, Final residual = 0.00112147, No Iterations 4
smoothSolver:  Solving for Uy, Initial residual = 0.0147526, Final residual = 0.000839041, No Iterations 4
smoothSolver:  Solving for Uz, Initial residual = 0.0182044, Final residual = 0.00108456, No Iterations 4
GAMG:  Solving for p, Initial residual = 0.0436846, Final residual = 0.00256654, No Iterations 2
time step continuity errors : sum local = 0.815699, global = -0.124669, cumulative = -1.21717
smoothSolver:  Solving for omega, Initial residual = 0.00071143, Final residual = 5.49714e-05, No Iterations 3
smoothSolver:  Solving for k, Initial residual = 0.0272927, Final residual = 0.00243645, No Iterations 3
ExecutionTime = 34.67 s  ClockTime = 35 s

Time = 37

smoothSolver:  Solving for Ux, Initial residual = 0.0181833, Final residual = 0.00111243, No Iterations 4
smoothSolver:  Solving for Uy, Initial residual = 0.0143527, Final residual = 0.000816442, No Iterations 4
smoothSolver:  Solving for Uz, Initial residual = 0.018138, Final residual = 0.0010732, No Iterations 4
GAMG:  Solving for p, Initial residual = 0.0432657, Final residual = 0.00256697, No Iterations 2
time step continuity errors : sum local = 0.837948, global = -0.152529, cumulative = -1.3697
smoothSolver:  Solving for omega, Initial residual = 0.000699037, Final residual = 5.38671e-05, No Iterations 3
smoothSolver:  Solving for k, Initial residual = 0.0280735, Final residual = 0.00251004, No Iterations 3
ExecutionTime = 35.55 s  ClockTime = 35 s

Time = 38

smoothSolver:  Solving for Ux, Initial residual = 0.0180639, Final residual = 0.00110397, No Iterations 4
smoothSolver:  Solving for Uy, Initial residual = 0.0140432, Final residual = 0.000789497, No Iterations 4
smoothSolver:  Solving for Uz, Initial residual = 0.0180011, Final residual = 0.00105164, No Iterations 4
GAMG:  Solving for p, Initial residual = 0.0431513, Final residual = 0.00249767, No Iterations 2
time step continuity errors : sum local = 0.835713, global = -0.163787, cumulative = -1.53348
smoothSolver:  Solving for omega, Initial residual = 0.000685374, Final residual = 5.15285e-05, No Iterations 3
smoothSolver:  Solving for k, Initial residual = 0.0284832, Final residual = 0.00252029, No Iterations 3
ExecutionTime = 36.43 s  ClockTime = 36 s

Time = 39

smoothSolver:  Solving for Ux, Initial residual = 0.0179635, Final residual = 0.00108861, No Iterations 4
smoothSolver:  Solving for Uy, Initial residual = 0.0137232, Final residual = 0.000763259, No Iterations 4
smoothSolver:  Solving for Uz, Initial residual = 0.017629, Final residual = 0.0010153, No Iterations 4
GAMG:  Solving for p, Initial residual = 0.0429947, Final residual = 0.00236481, No Iterations 2
time step continuity errors : sum local = 0.809274, global = -0.15651, cumulative = -1.68999
smoothSolver:  Solving for omega, Initial residual = 0.000671341, Final residual = 4.98566e-05, No Iterations 3
smoothSolver:  Solving for k, Initial residual = 0.0290892, Final residual = 0.00256268, No Iterations 3
ExecutionTime = 37.31 s  ClockTime = 37 s

Time = 40

smoothSolver:  Solving for Ux, Initial residual = 0.0178673, Final residual = 0.00107102, No Iterations 4
smoothSolver:  Solving for Uy, Initial residual = 0.013421, Final residual = 0.000739116, No Iterations 4
smoothSolver:  Solving for Uz, Initial residual = 0.0170232, Final residual = 0.000962225, No Iterations 4
GAMG:  Solving for p, Initial residual = 0.0434378, Final residual = 0.00220713, No Iterations 2
time step continuity errors : sum local = 0.764748, global = -0.136827, cumulative = -1.82682
smoothSolver:  Solving for omega, Initial residual = 0.000655492, Final residual = 4.81371e-05, No Iterations 3
smoothSolver:  Solving for k, Initial residual = 0.0294345, Final residual = 0.00258909, No Iterations 3
ExecutionTime = 38.19 s  ClockTime = 38 s

Time = 41

smoothSolver:  Solving for Ux, Initial residual = 0.0177368, Final residual = 0.0010517, No Iterations 4
smoothSolver:  Solving for Uy, Initial residual = 0.0131465, Final residual = 0.000720092, No Iterations 4
smoothSolver:  Solving for Uz, Initial residual = 0.0163271, Final residual = 0.000906122, No Iterations 4
GAMG:  Solving for p, Initial residual = 0.0435555, Final residual = 0.00208232, No Iterations 2
time step continuity errors : sum local = 0.716801, global = -0.10876, cumulative = -1.93558
smoothSolver:  Solving for omega, Initial residual = 0.000645944, Final residual = 4.70435e-05, No Iterations 3
smoothSolver:  Solving for k, Initial residual = 0.0300688, Final residual = 0.00263741, No Iterations 3
ExecutionTime = 39.07 s  ClockTime = 39 s

Time = 42

smoothSolver:  Solving for Ux, Initial residual = 0.0175497, Final residual = 0.00103238, No Iterations 4
smoothSolver:  Solving for Uy, Initial residual = 0.0128187, Final residual = 0.000697681, No Iterations 4
smoothSolver:  Solving for Uz, Initial residual = 0.0156295, Final residual = 0.000859022, No Iterations 4
GAMG:  Solving for p, Initial residual = 0.0427883, Final residual = 0.00201943, No Iterations 2
time step continuity errors : sum local = 0.69159, global = -0.0912801, cumulative = -2.02686
smoothSolver:  Solving for omega, Initial residual = 0.000629221, Final residual = 4.58787e-05, No Iterations 3
smoothSolver:  Solving for k, Initial residual = 0.0302074, Final residual = 0.00267141, No Iterations 3
ExecutionTime = 39.95 s  ClockTime = 40 s

Time = 43

smoothSolver:  Solving for Ux, Initial residual = 0.0172557, Final residual = 0.00100708, No Iterations 4
smoothSolver:  Solving for Uy, Initial residual = 0.0124978, Final residual = 0.00066662, No Iterations 4
smoothSolver:  Solving for Uz, Initial residual = 0.0151014, Final residual = 0.000822602, No Iterations 4
GAMG:  Solving for p, Initial residual = 0.041578, Final residual = 0.00202556, No Iterations 2
time step continuity errors : sum local = 0.699955, global = -0.0978995, cumulative = -2.12476
smoothSolver:  Solving for omega, Initial residual = 0.000624141, Final residual = 4.53325e-05, No Iterations 3
smoothSolver:  Solving for k, Initial residual = 0.0305349, Final residual = 0.0027137, No Iterations 3
ExecutionTime = 40.83 s  ClockTime = 41 s

Time = 44

smoothSolver:  Solving for Ux, Initial residual = 0.0168807, Final residual = 0.000980247, No Iterations 4
smoothSolver:  Solving for Uy, Initial residual = 0.0120973, Final residual = 0.000631259, No Iterations 4
smoothSolver:  Solving for Uz, Initial residual = 0.0147128, Final residual = 0.000790954, No Iterations 4
GAMG:  Solving for p, Initial residual = 0.0414077, Final residual = 0.00207633, No Iterations 2
time step continuity errors : sum local = 0.710735, global = -0.123712, cumulative = -2.24847
smoothSolver:  Solving for omega, Initial residual = 0.000610147, Final residual = 4.41515e-05, No Iterations 3
smoothSolver:  Solving for k, Initial residual = 0.030536, Final residual = 0.00272848, No Iterations 3
ExecutionTime = 41.7 s  ClockTime = 42 s

Time = 45

smoothSolver:  Solving for Ux, Initial residual = 0.016451, Final residual = 0.000951699, No Iterations 4
smoothSolver:  Solving for Uy, Initial residual = 0.01164, Final residual = 0.000594898, No Iterations 4
smoothSolver:  Solving for Uz, Initial residual = 0.014376, Final residual = 0.000765799, No Iterations 4
GAMG:  Solving for p, Initial residual = 0.0411579, Final residual = 0.00209402, No Iterations 2
time step continuity errors : sum local = 0.709863, global = -0.139174, cumulative = -2.38765
smoothSolver:  Solving for omega, Initial residual = 0.000599159, Final residual = 4.32951e-05, No Iterations 3
smoothSolver:  Solving for k, Initial residual = 0.0305338, Final residual = 0.00275291, No Iterations 3
ExecutionTime = 42.59 s  ClockTime = 43 s

Time = 46

smoothSolver:  Solving for Ux, Initial residual = 0.0160281, Final residual = 0.000924575, No Iterations 4
smoothSolver:  Solving for Uy, Initial residual = 0.011157, Final residual = 0.000558839, No Iterations 4
smoothSolver:  Solving for Uz, Initial residual = 0.0139472, Final residual = 0.00073775, No Iterations 4
GAMG:  Solving for p, Initial residual = 0.0404291, Final residual = 0.00200013, No Iterations 2
time step continuity errors : sum local = 0.675691, global = -0.135265, cumulative = -2.52291
smoothSolver:  Solving for omega, Initial residual = 0.000586437, Final residual = 4.1884e-05, No Iterations 3
smoothSolver:  Solving for k, Initial residual = 0.0305073, Final residual = 0.00272382, No Iterations 3
ExecutionTime = 43.46 s  ClockTime = 43 s

Time = 47

smoothSolver:  Solving for Ux, Initial residual = 0.0155727, Final residual = 0.000901732, No Iterations 4
smoothSolver:  Solving for Uy, Initial residual = 0.0107185, Final residual = 0.000533762, No Iterations 4
smoothSolver:  Solving for Uz, Initial residual = 0.0133515, Final residual = 0.000701862, No Iterations 4
GAMG:  Solving for p, Initial residual = 0.0401332, Final residual = 0.00185021, No Iterations 2
time step continuity errors : sum local = 0.619, global = -0.117808, cumulative = -2.64072
smoothSolver:  Solving for omega, Initial residual = 0.000567434, Final residual = 4.0213e-05, No Iterations 3
smoothSolver:  Solving for k, Initial residual = 0.0303095, Final residual = 0.00270314, No Iterations 3
ExecutionTime = 44.34 s  ClockTime = 44 s

Time = 48

smoothSolver:  Solving for Ux, Initial residual = 0.0150992, Final residual = 0.000879048, No Iterations 4
smoothSolver:  Solving for Uy, Initial residual = 0.0103282, Final residual = 0.000515158, No Iterations 4
smoothSolver:  Solving for Uz, Initial residual = 0.012638, Final residual = 0.000656723, No Iterations 4
GAMG:  Solving for p, Initial residual = 0.039787, Final residual = 0.00170481, No Iterations 2
time step continuity errors : sum local = 0.564908, global = -0.0872009, cumulative = -2.72792
smoothSolver:  Solving for omega, Initial residual = 0.000550246, Final residual = 3.91146e-05, No Iterations 3
smoothSolver:  Solving for k, Initial residual = 0.030045, Final residual = 0.00267791, No Iterations 3
ExecutionTime = 45.22 s  ClockTime = 45 s

Time = 49

smoothSolver:  Solving for Ux, Initial residual = 0.0146457, Final residual = 0.000851866, No Iterations 4
smoothSolver:  Solving for Uy, Initial residual = 0.00996286, Final residual = 0.000501806, No Iterations 4
smoothSolver:  Solving for Uz, Initial residual = 0.0118651, Final residual = 0.000603448, No Iterations 4
GAMG:  Solving for p, Initial residual = 0.0393973, Final residual = 0.00164312, No Iterations 2
time step continuity errors : sum local = 0.540544, global = -0.0597411, cumulative = -2.78766
smoothSolver:  Solving for omega, Initial residual = 0.000534362, Final residual = 3.81338e-05, No Iterations 3
smoothSolver:  Solving for k, Initial residual = 0.0296767, Final residual = 0.00261172, No Iterations 3
ExecutionTime = 46.09 s  ClockTime = 46 s

Time = 50

smoothSolver:  Solving for Ux, Initial residual = 0.0142007, Final residual = 0.000817443, No Iterations 4
smoothSolver:  Solving for Uy, Initial residual = 0.00965879, Final residual = 0.000487236, No Iterations 4
smoothSolver:  Solving for Uz, Initial residual = 0.0111508, Final residual = 0.000552795, No Iterations 4
GAMG:  Solving for p, Initial residual = 0.0396342, Final residual = 0.00172446, No Iterations 2
time step continuity errors : sum local = 0.555925, global = -0.0449144, cumulative = -2.83258
smoothSolver:  Solving for omega, Initial residual = 0.000522916, Final residual = 3.72067e-05, No Iterations 3
smoothSolver:  Solving for k, Initial residual = 0.0294477, Final residual = 0.00257564, No Iterations 3
ExecutionTime = 46.97 s  ClockTime = 47 s

Time = 51

smoothSolver:  Solving for Ux, Initial residual = 0.0136905, Final residual = 0.000778593, No Iterations 4
smoothSolver:  Solving for Uy, Initial residual = 0.00932055, Final residual = 0.000473569, No Iterations 4
smoothSolver:  Solving for Uz, Initial residual = 0.010568, Final residual = 0.000514337, No Iterations 4
GAMG:  Solving for p, Initial residual = 0.0393016, Final residual = 0.00177684, No Iterations 2
time step continuity errors : sum local = 0.571463, global = -0.0473514, cumulative = -2.87993
smoothSolver:  Solving for omega, Initial residual = 0.000515589, Final residual = 3.6551e-05, No Iterations 3
smoothSolver:  Solving for k, Initial residual = 0.029053, Final residual = 0.00253354, No Iterations 3
ExecutionTime = 47.85 s  ClockTime = 48 s

Time = 52

smoothSolver:  Solving for Ux, Initial residual = 0.013186, Final residual = 0.000742577, No Iterations 4
smoothSolver:  Solving for Uy, Initial residual = 0.00896668, Final residual = 0.0004562, No Iterations 4
smoothSolver:  Solving for Uz, Initial residual = 0.0100882, Final residual = 0.00048516, No Iterations 4
GAMG:  Solving for p, Initial residual = 0.038572, Final residual = 0.00174, No Iterations 2
time step continuity errors : sum local = 0.563343, global = -0.0614206, cumulative = -2.94135
smoothSolver:  Solving for omega, Initial residual = 0.000508387, Final residual = 3.60715e-05, No Iterations 3
smoothSolver:  Solving for k, Initial residual = 0.0288483, Final residual = 0.00252506, No Iterations 3
ExecutionTime = 48.74 s  ClockTime = 49 s

Time = 53

smoothSolver:  Solving for Ux, Initial residual = 0.0126689, Final residual = 0.000705193, No Iterations 4
smoothSolver:  Solving for Uy, Initial residual = 0.00859096, Final residual = 0.000436083, No Iterations 4
smoothSolver:  Solving for Uz, Initial residual = 0.00966479, Final residual = 0.00045803, No Iterations 4
GAMG:  Solving for p, Initial residual = 0.0375256, Final residual = 0.00165614, No Iterations 2
time step continuity errors : sum local = 0.543367, global = -0.0693068, cumulative = -3.01065
smoothSolver:  Solving for omega, Initial residual = 0.000493658, Final residual = 3.52155e-05, No Iterations 3
smoothSolver:  Solving for k, Initial residual = 0.0285706, Final residual = 0.00249954, No Iterations 3
ExecutionTime = 49.61 s  ClockTime = 50 s

Time = 54

smoothSolver:  Solving for Ux, Initial residual = 0.0121355, Final residual = 0.000669251, No Iterations 4
smoothSolver:  Solving for Uy, Initial residual = 0.0082712, Final residual = 0.000419678, No Iterations 4
smoothSolver:  Solving for Uz, Initial residual = 0.0092524, Final residual = 0.000436236, No Iterations 4
GAMG:  Solving for p, Initial residual = 0.0363848, Final residual = 0.00155795, No Iterations 2
time step continuity errors : sum local = 0.521375, global = -0.0661482, cumulative = -3.0768
smoothSolver:  Solving for omega, Initial residual = 0.00048452, Final residual = 3.49059e-05, No Iterations 3
smoothSolver:  Solving for k, Initial residual = 0.0284086, Final residual = 0.00249463, No Iterations 3
ExecutionTime = 50.5 s  ClockTime = 50 s

Time = 55

smoothSolver:  Solving for Ux, Initial residual = 0.0115786, Final residual = 0.000635284, No Iterations 4
smoothSolver:  Solving for Uy, Initial residual = 0.00799512, Final residual = 0.000404423, No Iterations 4
smoothSolver:  Solving for Uz, Initial residual = 0.00878844, Final residual = 0.000420185, No Iterations 4
GAMG:  Solving for p, Initial residual = 0.0351756, Final residual = 0.00149438, No Iterations 2
time step continuity errors : sum local = 0.511819, global = -0.0526975, cumulative = -3.1295
smoothSolver:  Solving for omega, Initial residual = 0.00047467, Final residual = 3.43363e-05, No Iterations 3
smoothSolver:  Solving for k, Initial residual = 0.0281363, Final residual = 0.00245779, No Iterations 3
ExecutionTime = 51.37 s  ClockTime = 51 s

Time = 56

smoothSolver:  Solving for Ux, Initial residual = 0.0110185, Final residual = 0.000601046, No Iterations 4
smoothSolver:  Solving for Uy, Initial residual = 0.00772792, Final residual = 0.000392823, No Iterations 4
smoothSolver:  Solving for Uz, Initial residual = 0.00829699, Final residual = 0.00039977, No Iterations 4
GAMG:  Solving for p, Initial residual = 0.0337756, Final residual = 0.00145742, No Iterations 2
time step continuity errors : sum local = 0.508953, global = -0.0341647, cumulative = -3.16366
smoothSolver:  Solving for omega, Initial residual = 0.000462281, Final residual = 3.37766e-05, No Iterations 3
smoothSolver:  Solving for k, Initial residual = 0.0275624, Final residual = 0.00242872, No Iterations 3
ExecutionTime = 52.26 s  ClockTime = 52 s

Time = 57

smoothSolver:  Solving for Ux, Initial residual = 0.0104645, Final residual = 0.000568812, No Iterations 4
smoothSolver:  Solving for Uy, Initial residual = 0.00744332, Final residual = 0.000381661, No Iterations 4
smoothSolver:  Solving for Uz, Initial residual = 0.00781469, Final residual = 0.0003759, No Iterations 4
GAMG:  Solving for p, Initial residual = 0.0320862, Final residual = 0.00139177, No Iterations 2
time step continuity errors : sum local = 0.497011, global = -0.0125932, cumulative = -3.17626
smoothSolver:  Solving for omega, Initial residual = 0.000457508, Final residual = 3.31681e-05, No Iterations 3
smoothSolver:  Solving for k, Initial residual = 0.0272788, Final residual = 0.0023803, No Iterations 3
ExecutionTime = 53.14 s  ClockTime = 53 s

Time = 58

smoothSolver:  Solving for Ux, Initial residual = 0.00994156, Final residual = 0.000536694, No Iterations 4
smoothSolver:  Solving for Uy, Initial residual = 0.00715468, Final residual = 0.000369271, No Iterations 4
smoothSolver:  Solving for Uz, Initial residual = 0.00735186, Final residual = 0.000349342, No Iterations 4
GAMG:  Solving for p, Initial residual = 0.0306905, Final residual = 0.00134554, No Iterations 2
time step continuity errors : sum local = 0.491637, global = 0.00776781, cumulative = -3.16849
smoothSolver:  Solving for omega, Initial residual = 0.000445517, Final residual = 3.23146e-05, No Iterations 3
smoothSolver:  Solving for k, Initial residual = 0.0265629, Final residual = 0.00230225, No Iterations 3
ExecutionTime = 54.01 s  ClockTime = 54 s

Time = 59

smoothSolver:  Solving for Ux, Initial residual = 0.0094723, Final residual = 0.00050789, No Iterations 4
smoothSolver:  Solving for Uy, Initial residual = 0.00690559, Final residual = 0.000354902, No Iterations 4
smoothSolver:  Solving for Uz, Initial residual = 0.00691455, Final residual = 0.000328743, No Iterations 4
GAMG:  Solving for p, Initial residual = 0.0289829, Final residual = 0.00128826, No Iterations 2
time step continuity errors : sum local = 0.48291, global = 0.017746, cumulative = -3.15074
smoothSolver:  Solving for omega, Initial residual = 0.000434591, Final residual = 3.14324e-05, No Iterations 3
smoothSolver:  Solving for k, Initial residual = 0.0259226, Final residual = 0.00222478, No Iterations 3
ExecutionTime = 54.89 s  ClockTime = 55 s

Time = 60

smoothSolver:  Solving for Ux, Initial residual = 0.00904624, Final residual = 0.000485018, No Iterations 4
smoothSolver:  Solving for Uy, Initial residual = 0.00664503, Final residual = 0.00033999, No Iterations 4
smoothSolver:  Solving for Uz, Initial residual = 0.00655357, Final residual = 0.000313008, No Iterations 4
GAMG:  Solving for p, Initial residual = 0.0271251, Final residual = 0.00121873, No Iterations 2
time step continuity errors : sum local = 0.46896, global = 0.018277, cumulative = -3.13247
smoothSolver:  Solving for omega, Initial residual = 0.000420162, Final residual = 3.03639e-05, No Iterations 3
smoothSolver:  Solving for k, Initial residual = 0.0250648, Final residual = 0.00213537, No Iterations 3
ExecutionTime = 55.78 s  ClockTime = 56 s

Time = 61

smoothSolver:  Solving for Ux, Initial residual = 0.00861921, Final residual = 0.000466123, No Iterations 4
smoothSolver:  Solving for Uy, Initial residual = 0.00639333, Final residual = 0.000326197, No Iterations 4
smoothSolver:  Solving for Uz, Initial residual = 0.00622945, Final residual = 0.000302316, No Iterations 4
GAMG:  Solving for p, Initial residual = 0.0254129, Final residual = 0.00115092, No Iterations 2
time step continuity errors : sum local = 0.454747, global = 0.0101795, cumulative = -3.12229
smoothSolver:  Solving for omega, Initial residual = 0.000405169, Final residual = 2.93452e-05, No Iterations 3
smoothSolver:  Solving for k, Initial residual = 0.0241892, Final residual = 0.00207248, No Iterations 3
ExecutionTime = 56.65 s  ClockTime = 57 s

Time = 62

smoothSolver:  Solving for Ux, Initial residual = 0.00821684, Final residual = 0.000445889, No Iterations 4
smoothSolver:  Solving for Uy, Initial residual = 0.00615987, Final residual = 0.000312968, No Iterations 4
smoothSolver:  Solving for Uz, Initial residual = 0.0059279, Final residual = 0.000289456, No Iterations 4
GAMG:  Solving for p, Initial residual = 0.0241025, Final residual = 0.00109191, No Iterations 2
time step continuity errors : sum local = 0.442384, global = -0.0047613, cumulative = -3.12705
smoothSolver:  Solving for omega, Initial residual = 0.000395374, Final residual = 2.83125e-05, No Iterations 3
smoothSolver:  Solving for k, Initial residual = 0.0235581, Final residual = 0.00197238, No Iterations 3
ExecutionTime = 57.53 s  ClockTime = 57 s

Time = 63

smoothSolver:  Solving for Ux, Initial residual = 0.00785625, Final residual = 0.000425015, No Iterations 4
smoothSolver:  Solving for Uy, Initial residual = 0.00594813, Final residual = 0.000299312, No Iterations 4
smoothSolver:  Solving for Uz, Initial residual = 0.00565103, Final residual = 0.000273379, No Iterations 4
GAMG:  Solving for p, Initial residual = 0.023127, Final residual = 0.00103005, No Iterations 2
time step continuity errors : sum local = 0.426864, global = -0.022848, cumulative = -3.1499
smoothSolver:  Solving for omega, Initial residual = 0.000382303, Final residual = 2.6969e-05, No Iterations 3
smoothSolver:  Solving for k, Initial residual = 0.0227738, Final residual = 0.00185978, No Iterations 3
ExecutionTime = 58.41 s  ClockTime = 58 s

Time = 64

smoothSolver:  Solving for Ux, Initial residual = 0.00750926, Final residual = 0.000400544, No Iterations 4
smoothSolver:  Solving for Uy, Initial residual = 0.00573588, Final residual = 0.000283787, No Iterations 4
smoothSolver:  Solving for Uz, Initial residual = 0.00537957, Final residual = 0.000257042, No Iterations 4
GAMG:  Solving for p, Initial residual = 0.022053, Final residual = 0.000979792, No Iterations 2
time step continuity errors : sum local = 0.413611, global = -0.038535, cumulative = -3.18843
smoothSolver:  Solving for omega, Initial residual = 0.000369859, Final residual = 2.57523e-05, No Iterations 3
smoothSolver:  Solving for k, Initial residual = 0.0218489, Final residual = 0.0017733, No Iterations 3
ExecutionTime = 59.29 s  ClockTime = 59 s

Time = 65

smoothSolver:  Solving for Ux, Initial residual = 0.00717782, Final residual = 0.000375414, No Iterations 4
smoothSolver:  Solving for Uy, Initial residual = 0.00553944, Final residual = 0.000269427, No Iterations 4
smoothSolver:  Solving for Uz, Initial residual = 0.00512076, Final residual = 0.000243131, No Iterations 4
GAMG:  Solving for p, Initial residual = 0.0209111, Final residual = 0.000913164, No Iterations 2
time step continuity errors : sum local = 0.391237, global = -0.0457058, cumulative = -3.23414
smoothSolver:  Solving for omega, Initial residual = 0.000360379, Final residual = 2.49839e-05, No Iterations 3
smoothSolver:  Solving for k, Initial residual = 0.0210359, Final residual = 0.00170552, No Iterations 3
ExecutionTime = 60.16 s  ClockTime = 60 s

Time = 66

smoothSolver:  Solving for Ux, Initial residual = 0.00683805, Final residual = 0.000352933, No Iterations 4
smoothSolver:  Solving for Uy, Initial residual = 0.00533624, Final residual = 0.000257597, No Iterations 4
smoothSolver:  Solving for Uz, Initial residual = 0.00487264, Final residual = 0.00022967, No Iterations 4
GAMG:  Solving for p, Initial residual = 0.01965, Final residual = 0.000830213, No Iterations 2
time step continuity errors : sum local = 0.359986, global = -0.0422576, cumulative = -3.2764
smoothSolver:  Solving for omega, Initial residual = 0.000347671, Final residual = 2.40587e-05, No Iterations 3
smoothSolver:  Solving for k, Initial residual = 0.0201653, Final residual = 0.00162024, No Iterations 3
ExecutionTime = 61.05 s  ClockTime = 61 s

Time = 67

smoothSolver:  Solving for Ux, Initial residual = 0.00652328, Final residual = 0.000332891, No Iterations 4
smoothSolver:  Solving for Uy, Initial residual = 0.00512691, Final residual = 0.000246842, No Iterations 4
smoothSolver:  Solving for Uz, Initial residual = 0.00464374, Final residual = 0.000216894, No Iterations 4
GAMG:  Solving for p, Initial residual = 0.0184158, Final residual = 0.000781061, No Iterations 2
time step continuity errors : sum local = 0.34303, global = -0.029047, cumulative = -3.30544
smoothSolver:  Solving for omega, Initial residual = 0.000334384, Final residual = 2.29759e-05, No Iterations 3
smoothSolver:  Solving for k, Initial residual = 0.0191843, Final residual = 0.00153246, No Iterations 3
ExecutionTime = 61.93 s  ClockTime = 62 s

Time = 68

smoothSolver:  Solving for Ux, Initial residual = 0.00620751, Final residual = 0.000312517, No Iterations 4
smoothSolver:  Solving for Uy, Initial residual = 0.00492715, Final residual = 0.000234752, No Iterations 4
smoothSolver:  Solving for Uz, Initial residual = 0.00440345, Final residual = 0.000440242, No Iterations 3
GAMG:  Solving for p, Initial residual = 0.0174166, Final residual = 0.000764305, No Iterations 2
time step continuity errors : sum local = 0.339638, global = -0.0106397, cumulative = -3.31608
smoothSolver:  Solving for omega, Initial residual = 0.000321421, Final residual = 2.18609e-05, No Iterations 3
smoothSolver:  Solving for k, Initial residual = 0.0181196, Final residual = 0.00142633, No Iterations 3
ExecutionTime = 62.8 s  ClockTime = 63 s

Time = 69

smoothSolver:  Solving for Ux, Initial residual = 0.0058773, Final residual = 0.000291896, No Iterations 4
smoothSolver:  Solving for Uy, Initial residual = 0.00472937, Final residual = 0.000222413, No Iterations 4
smoothSolver:  Solving for Uz, Initial residual = 0.00421531, Final residual = 0.000414656, No Iterations 3
GAMG:  Solving for p, Initial residual = 0.0161669, Final residual = 0.000754924, No Iterations 2
time step continuity errors : sum local = 0.338442, global = 0.00494883, cumulative = -3.31113
smoothSolver:  Solving for omega, Initial residual = 0.000307171, Final residual = 2.07262e-05, No Iterations 3
smoothSolver:  Solving for k, Initial residual = 0.0168603, Final residual = 0.00129311, No Iterations 3
ExecutionTime = 63.67 s  ClockTime = 64 s

Time = 70

smoothSolver:  Solving for Ux, Initial residual = 0.00558642, Final residual = 0.000272834, No Iterations 4
smoothSolver:  Solving for Uy, Initial residual = 0.00453768, Final residual = 0.000212508, No Iterations 4
smoothSolver:  Solving for Uz, Initial residual = 0.00404659, Final residual = 0.000390677, No Iterations 3
GAMG:  Solving for p, Initial residual = 0.0148854, Final residual = 0.000726866, No Iterations 2
time step continuity errors : sum local = 0.329352, global = 0.0144016, cumulative = -3.29673
smoothSolver:  Solving for omega, Initial residual = 0.000295907, Final residual = 2.00654e-05, No Iterations 3
smoothSolver:  Solving for k, Initial residual = 0.0158958, Final residual = 0.00119808, No Iterations 3
ExecutionTime = 64.54 s  ClockTime = 65 s

Time = 71

smoothSolver:  Solving for Ux, Initial residual = 0.00526801, Final residual = 0.000253565, No Iterations 4
smoothSolver:  Solving for Uy, Initial residual = 0.0043487, Final residual = 0.000204371, No Iterations 4
smoothSolver:  Solving for Uz, Initial residual = 0.00385101, Final residual = 0.000366482, No Iterations 3
GAMG:  Solving for p, Initial residual = 0.0137059, Final residual = 0.000677616, No Iterations 2
time step continuity errors : sum local = 0.309814, global = 0.0179122, cumulative = -3.27882
smoothSolver:  Solving for omega, Initial residual = 0.000281337, Final residual = 1.89259e-05, No Iterations 3
smoothSolver:  Solving for k, Initial residual = 0.0147438, Final residual = 0.00109098, No Iterations 3
ExecutionTime = 65.41 s  ClockTime = 65 s

Time = 72

smoothSolver:  Solving for Ux, Initial residual = 0.0049799, Final residual = 0.000236205, No Iterations 4
smoothSolver:  Solving for Uy, Initial residual = 0.00415951, Final residual = 0.000196684, No Iterations 4
smoothSolver:  Solving for Uz, Initial residual = 0.00364927, Final residual = 0.000341243, No Iterations 3
GAMG:  Solving for p, Initial residual = 0.0128295, Final residual = 0.000639301, No Iterations 2
time step continuity errors : sum local = 0.294216, global = 0.0147027, cumulative = -3.26412
smoothSolver:  Solving for omega, Initial residual = 0.000265768, Final residual = 1.78169e-05, No Iterations 3
smoothSolver:  Solving for k, Initial residual = 0.0136486, Final residual = 0.00100515, No Iterations 3
ExecutionTime = 66.29 s  ClockTime = 66 s

Time = 73

smoothSolver:  Solving for Ux, Initial residual = 0.00471636, Final residual = 0.000220057, No Iterations 4
smoothSolver:  Solving for Uy, Initial residual = 0.00399968, Final residual = 0.000188784, No Iterations 4
smoothSolver:  Solving for Uz, Initial residual = 0.00344828, Final residual = 0.000317136, No Iterations 3
GAMG:  Solving for p, Initial residual = 0.0120299, Final residual = 0.000613032, No Iterations 2
time step continuity errors : sum local = 0.283616, global = 0.00548201, cumulative = -3.25863
smoothSolver:  Solving for omega, Initial residual = 0.000250543, Final residual = 1.65028e-05, No Iterations 3
smoothSolver:  Solving for k, Initial residual = 0.012664, Final residual = 0.000932117, No Iterations 3
ExecutionTime = 67.16 s  ClockTime = 67 s

Time = 74

smoothSolver:  Solving for Ux, Initial residual = 0.00444522, Final residual = 0.000204459, No Iterations 4
smoothSolver:  Solving for Uy, Initial residual = 0.00384114, Final residual = 0.000181309, No Iterations 4
smoothSolver:  Solving for Uz, Initial residual = 0.00325773, Final residual = 0.000295051, No Iterations 3
GAMG:  Solving for p, Initial residual = 0.0113574, Final residual = 0.00059339, No Iterations 2
time step continuity errors : sum local = 0.275525, global = -0.00259462, cumulative = -3.26123
smoothSolver:  Solving for omega, Initial residual = 0.000236684, Final residual = 1.51736e-05, No Iterations 3
smoothSolver:  Solving for k, Initial residual = 0.011824, Final residual = 0.000863154, No Iterations 3
ExecutionTime = 68.04 s  ClockTime = 68 s

Time = 75

smoothSolver:  Solving for Ux, Initial residual = 0.00417072, Final residual = 0.000412316, No Iterations 3
smoothSolver:  Solving for Uy, Initial residual = 0.00368917, Final residual = 0.000172418, No Iterations 4
smoothSolver:  Solving for Uz, Initial residual = 0.00308256, Final residual = 0.000276349, No Iterations 3
GAMG:  Solving for p, Initial residual = 0.0107575, Final residual = 0.000579389, No Iterations 2
time step continuity errors : sum local = 0.269983, global = -0.00659562, cumulative = -3.26783
smoothSolver:  Solving for omega, Initial residual = 0.000222432, Final residual = 1.42267e-05, No Iterations 3
smoothSolver:  Solving for k, Initial residual = 0.0110624, Final residual = 0.000821266, No Iterations 3
ExecutionTime = 68.9 s  ClockTime = 69 s

Time = 76

smoothSolver:  Solving for Ux, Initial residual = 0.00391726, Final residual = 0.000381714, No Iterations 3
smoothSolver:  Solving for Uy, Initial residual = 0.00351799, Final residual = 0.00016254, No Iterations 4
smoothSolver:  Solving for Uz, Initial residual = 0.00291692, Final residual = 0.000257767, No Iterations 3
GAMG:  Solving for p, Initial residual = 0.0103119, Final residual = 0.000577136, No Iterations 2
time step continuity errors : sum local = 0.269777, global = -0.0058565, cumulative = -3.27368
smoothSolver:  Solving for omega, Initial residual = 0.000209467, Final residual = 1.34476e-05, No Iterations 3
smoothSolver:  Solving for k, Initial residual = 0.0102735, Final residual = 0.000778668, No Iterations 3
ExecutionTime = 69.77 s  ClockTime = 70 s

Time = 77

smoothSolver:  Solving for Ux, Initial residual = 0.00368113, Final residual = 0.00035619, No Iterations 3
smoothSolver:  Solving for Uy, Initial residual = 0.00336427, Final residual = 0.000335714, No Iterations 3
smoothSolver:  Solving for Uz, Initial residual = 0.00276196, Final residual = 0.000242764, No Iterations 3
GAMG:  Solving for p, Initial residual = 0.0098832, Final residual = 0.000572137, No Iterations 2
time step continuity errors : sum local = 0.268147, global = -0.00173481, cumulative = -3.27542
smoothSolver:  Solving for omega, Initial residual = 0.000198661, Final residual = 1.28734e-05, No Iterations 3
smoothSolver:  Solving for k, Initial residual = 0.00973495, Final residual = 0.000759385, No Iterations 3
ExecutionTime = 70.63 s  ClockTime = 71 s

Time = 78

smoothSolver:  Solving for Ux, Initial residual = 0.00345985, Final residual = 0.00033427, No Iterations 3
smoothSolver:  Solving for Uy, Initial residual = 0.00325324, Final residual = 0.000324748, No Iterations 3
smoothSolver:  Solving for Uz, Initial residual = 0.00261422, Final residual = 0.000231953, No Iterations 3
GAMG:  Solving for p, Initial residual = 0.00938949, Final residual = 0.000567058, No Iterations 2
time step continuity errors : sum local = 0.266462, global = 0.00246332, cumulative = -3.27295
smoothSolver:  Solving for omega, Initial residual = 0.000187875, Final residual = 1.23381e-05, No Iterations 3
smoothSolver:  Solving for k, Initial residual = 0.00921941, Final residual = 0.000722863, No Iterations 3
ExecutionTime = 71.5 s  ClockTime = 71 s

Time = 79

smoothSolver:  Solving for Ux, Initial residual = 0.00325565, Final residual = 0.000316287, No Iterations 3
smoothSolver:  Solving for Uy, Initial residual = 0.00316344, Final residual = 0.000316054, No Iterations 3
smoothSolver:  Solving for Uz, Initial residual = 0.0024835, Final residual = 0.000222226, No Iterations 3
GAMG:  Solving for p, Initial residual = 0.00895646, Final residual = 0.000549102, No Iterations 2
time step continuity errors : sum local = 0.258359, global = 0.00412922, cumulative = -3.26882
smoothSolver:  Solving for omega, Initial residual = 0.000179581, Final residual = 1.19732e-05, No Iterations 3
smoothSolver:  Solving for k, Initial residual = 0.00879166, Final residual = 0.00069013, No Iterations 3
ExecutionTime = 72.36 s  ClockTime = 72 s

Time = 80

smoothSolver:  Solving for Ux, Initial residual = 0.00307589, Final residual = 0.000302707, No Iterations 3
smoothSolver:  Solving for Uy, Initial residual = 0.00307265, Final residual = 0.000306974, No Iterations 3
smoothSolver:  Solving for Uz, Initial residual = 0.00237222, Final residual = 0.000212529, No Iterations 3
GAMG:  Solving for p, Initial residual = 0.00860931, Final residual = 0.000526155, No Iterations 2
time step continuity errors : sum local = 0.247069, global = 0.00200481, cumulative = -3.26682
smoothSolver:  Solving for omega, Initial residual = 0.000171929, Final residual = 1.14406e-05, No Iterations 3
smoothSolver:  Solving for k, Initial residual = 0.00832762, Final residual = 0.000638732, No Iterations 3
ExecutionTime = 73.21 s  ClockTime = 73 s

Time = 81

smoothSolver:  Solving for Ux, Initial residual = 0.00291801, Final residual = 0.000290783, No Iterations 3
smoothSolver:  Solving for Uy, Initial residual = 0.00297561, Final residual = 0.000295584, No Iterations 3
smoothSolver:  Solving for Uz, Initial residual = 0.00227166, Final residual = 0.000204147, No Iterations 3
GAMG:  Solving for p, Initial residual = 0.00832904, Final residual = 0.000514359, No Iterations 2
time step continuity errors : sum local = 0.240678, global = -0.00220493, cumulative = -3.26902
smoothSolver:  Solving for omega, Initial residual = 0.000166209, Final residual = 1.09295e-05, No Iterations 3
smoothSolver:  Solving for k, Initial residual = 0.00798491, Final residual = 0.000593264, No Iterations 3
ExecutionTime = 74.07 s  ClockTime = 74 s

Time = 82

smoothSolver:  Solving for Ux, Initial residual = 0.00278405, Final residual = 0.00012789, No Iterations 4
smoothSolver:  Solving for Uy, Initial residual = 0.00287957, Final residual = 0.000284316, No Iterations 3
smoothSolver:  Solving for Uz, Initial residual = 0.00218606, Final residual = 0.000196741, No Iterations 3
GAMG:  Solving for p, Initial residual = 0.00805489, Final residual = 0.000506845, No Iterations 2
time step continuity errors : sum local = 0.236173, global = -0.00718561, cumulative = -3.27621
smoothSolver:  Solving for omega, Initial residual = 0.000161401, Final residual = 1.06427e-05, No Iterations 3
smoothSolver:  Solving for k, Initial residual = 0.00759248, Final residual = 0.000563131, No Iterations 3
ExecutionTime = 74.94 s  ClockTime = 75 s

Time = 83

smoothSolver:  Solving for Ux, Initial residual = 0.00264707, Final residual = 0.000122806, No Iterations 4
smoothSolver:  Solving for Uy, Initial residual = 0.00279074, Final residual = 0.000276241, No Iterations 3
smoothSolver:  Solving for Uz, Initial residual = 0.00210437, Final residual = 0.000191497, No Iterations 3
GAMG:  Solving for p, Initial residual = 0.00770799, Final residual = 0.000488014, No Iterations 2
time step continuity errors : sum local = 0.226876, global = -0.011348, cumulative = -3.28756
smoothSolver:  Solving for omega, Initial residual = 0.000155049, Final residual = 1.02896e-05, No Iterations 3
smoothSolver:  Solving for k, Initial residual = 0.00719877, Final residual = 0.000539695, No Iterations 3
ExecutionTime = 75.8 s  ClockTime = 76 s

Time = 84

smoothSolver:  Solving for Ux, Initial residual = 0.00251725, Final residual = 0.000118421, No Iterations 4
smoothSolver:  Solving for Uy, Initial residual = 0.00269185, Final residual = 0.000122269, No Iterations 4
smoothSolver:  Solving for Uz, Initial residual = 0.00202697, Final residual = 0.000187385, No Iterations 3
GAMG:  Solving for p, Initial residual = 0.00738569, Final residual = 0.000472326, No Iterations 2
time step continuity errors : sum local = 0.219627, global = -0.0133853, cumulative = -3.30094
smoothSolver:  Solving for omega, Initial residual = 0.00014952, Final residual = 9.9088e-06, No Iterations 3
smoothSolver:  Solving for k, Initial residual = 0.00687734, Final residual = 0.00052585, No Iterations 3
ExecutionTime = 76.68 s  ClockTime = 77 s

Time = 85

smoothSolver:  Solving for Ux, Initial residual = 0.00239834, Final residual = 0.000114976, No Iterations 4
smoothSolver:  Solving for Uy, Initial residual = 0.00256157, Final residual = 0.000117495, No Iterations 4
smoothSolver:  Solving for Uz, Initial residual = 0.00194981, Final residual = 0.00018277, No Iterations 3
GAMG:  Solving for p, Initial residual = 0.0070673, Final residual = 0.00045492, No Iterations 2
time step continuity errors : sum local = 0.212005, global = -0.012831, cumulative = -3.31377
smoothSolver:  Solving for omega, Initial residual = 0.000146314, Final residual = 9.63999e-06, No Iterations 3
smoothSolver:  Solving for k, Initial residual = 0.00678016, Final residual = 0.000521811, No Iterations 3
ExecutionTime = 77.55 s  ClockTime = 78 s

Time = 86

smoothSolver:  Solving for Ux, Initial residual = 0.00228694, Final residual = 0.000110817, No Iterations 4
smoothSolver:  Solving for Uy, Initial residual = 0.00243069, Final residual = 0.000111026, No Iterations 4
smoothSolver:  Solving for Uz, Initial residual = 0.00187109, Final residual = 0.000175886, No Iterations 3
GAMG:  Solving for p, Initial residual = 0.00673852, Final residual = 0.000438075, No Iterations 2
time step continuity errors : sum local = 0.204876, global = -0.00970434, cumulative = -3.32348
smoothSolver:  Solving for omega, Initial residual = 0.000143028, Final residual = 9.35486e-06, No Iterations 3
smoothSolver:  Solving for k, Initial residual = 0.00659165, Final residual = 0.000503423, No Iterations 3
ExecutionTime = 78.43 s  ClockTime = 78 s

Time = 87

smoothSolver:  Solving for Ux, Initial residual = 0.00219115, Final residual = 0.000106291, No Iterations 4
smoothSolver:  Solving for Uy, Initial residual = 0.00231125, Final residual = 0.000230611, No Iterations 3
smoothSolver:  Solving for Uz, Initial residual = 0.00178254, Final residual = 0.000168427, No Iterations 3
GAMG:  Solving for p, Initial residual = 0.00648135, Final residual = 0.000422629, No Iterations 2
time step continuity errors : sum local = 0.198397, global = -0.00440509, cumulative = -3.32788
smoothSolver:  Solving for omega, Initial residual = 0.000139444, Final residual = 9.09521e-06, No Iterations 3
smoothSolver:  Solving for k, Initial residual = 0.00634697, Final residual = 0.000484115, No Iterations 3
ExecutionTime = 79.28 s  ClockTime = 79 s

Time = 88

smoothSolver:  Solving for Ux, Initial residual = 0.00209734, Final residual = 0.000101292, No Iterations 4
smoothSolver:  Solving for Uy, Initial residual = 0.00222286, Final residual = 0.000101383, No Iterations 4
smoothSolver:  Solving for Uz, Initial residual = 0.00169287, Final residual = 0.000160686, No Iterations 3
GAMG:  Solving for p, Initial residual = 0.00627628, Final residual = 0.000407637, No Iterations 2
time step continuity errors : sum local = 0.19196, global = 0.00100023, cumulative = -3.32688
smoothSolver:  Solving for omega, Initial residual = 0.000136416, Final residual = 8.90502e-06, No Iterations 3
smoothSolver:  Solving for k, Initial residual = 0.00618323, Final residual = 0.000477204, No Iterations 3
ExecutionTime = 80.16 s  ClockTime = 80 s

Time = 89

smoothSolver:  Solving for Ux, Initial residual = 0.00201132, Final residual = 9.59758e-05, No Iterations 4
smoothSolver:  Solving for Uy, Initial residual = 0.00212143, Final residual = 9.70401e-05, No Iterations 4
smoothSolver:  Solving for Uz, Initial residual = 0.00161917, Final residual = 0.000153312, No Iterations 3
GAMG:  Solving for p, Initial residual = 0.00608584, Final residual = 0.000391356, No Iterations 2
time step continuity errors : sum local = 0.184595, global = 0.00395465, cumulative = -3.32293
smoothSolver:  Solving for omega, Initial residual = 0.000132334, Final residual = 8.60132e-06, No Iterations 3
smoothSolver:  Solving for k, Initial residual = 0.00592105, Final residual = 0.000453838, No Iterations 3
ExecutionTime = 81.03 s  ClockTime = 81 s

Time = 90

smoothSolver:  Solving for Ux, Initial residual = 0.0019148, Final residual = 9.02774e-05, No Iterations 4
smoothSolver:  Solving for Uy, Initial residual = 0.00202603, Final residual = 0.000202579, No Iterations 3
smoothSolver:  Solving for Uz, Initial residual = 0.00155892, Final residual = 0.000147509, No Iterations 3
GAMG:  Solving for p, Initial residual = 0.00595154, Final residual = 0.000371244, No Iterations 2
time step continuity errors : sum local = 0.175001, global = 0.00337225, cumulative = -3.31956
smoothSolver:  Solving for omega, Initial residual = 0.000128211, Final residual = 8.25961e-06, No Iterations 3
smoothSolver:  Solving for k, Initial residual = 0.00568242, Final residual = 0.000430529, No Iterations 3
ExecutionTime = 81.9 s  ClockTime = 82 s

Time = 91

smoothSolver:  Solving for Ux, Initial residual = 0.00183264, Final residual = 8.43524e-05, No Iterations 4
smoothSolver:  Solving for Uy, Initial residual = 0.00197278, Final residual = 0.000195612, No Iterations 3
smoothSolver:  Solving for Uz, Initial residual = 0.00150468, Final residual = 0.0001431, No Iterations 3
GAMG:  Solving for p, Initial residual = 0.00576246, Final residual = 0.000352231, No Iterations 2
time step continuity errors : sum local = 0.165561, global = -0.000211896, cumulative = -3.31977
smoothSolver:  Solving for omega, Initial residual = 0.000125428, Final residual = 7.94713e-06, No Iterations 3
smoothSolver:  Solving for k, Initial residual = 0.00553773, Final residual = 0.000416074, No Iterations 3
ExecutionTime = 82.77 s  ClockTime = 83 s

Time = 92

smoothSolver:  Solving for Ux, Initial residual = 0.00175799, Final residual = 0.000173479, No Iterations 3
smoothSolver:  Solving for Uy, Initial residual = 0.00192009, Final residual = 0.000191239, No Iterations 3
smoothSolver:  Solving for Uz, Initial residual = 0.00144947, Final residual = 0.000140042, No Iterations 3
GAMG:  Solving for p, Initial residual = 0.00559286, Final residual = 0.000334679, No Iterations 2
time step continuity errors : sum local = 0.156881, global = -0.00543543, cumulative = -3.3252
smoothSolver:  Solving for omega, Initial residual = 0.000121519, Final residual = 7.6418e-06, No Iterations 3
smoothSolver:  Solving for k, Initial residual = 0.00531086, Final residual = 0.000388122, No Iterations 3
ExecutionTime = 83.63 s  ClockTime = 84 s

Time = 93

smoothSolver:  Solving for Ux, Initial residual = 0.00169915, Final residual = 0.00016764, No Iterations 3
smoothSolver:  Solving for Uy, Initial residual = 0.00185204, Final residual = 8.61399e-05, No Iterations 4
smoothSolver:  Solving for Uz, Initial residual = 0.00139191, Final residual = 0.00013558, No Iterations 3
GAMG:  Solving for p, Initial residual = 0.00538793, Final residual = 0.00032623, No Iterations 2
time step continuity errors : sum local = 0.152469, global = -0.0102422, cumulative = -3.33545
smoothSolver:  Solving for omega, Initial residual = 0.000118079, Final residual = 7.45832e-06, No Iterations 3
smoothSolver:  Solving for k, Initial residual = 0.00510522, Final residual = 0.000372502, No Iterations 3
ExecutionTime = 84.49 s  ClockTime = 85 s

Time = 94

smoothSolver:  Solving for Ux, Initial residual = 0.0016543, Final residual = 7.68338e-05, No Iterations 4
smoothSolver:  Solving for Uy, Initial residual = 0.00177138, Final residual = 8.31091e-05, No Iterations 4
smoothSolver:  Solving for Uz, Initial residual = 0.00133548, Final residual = 0.000131467, No Iterations 3
GAMG:  Solving for p, Initial residual = 0.00523925, Final residual = 0.000325323, No Iterations 2
time step continuity errors : sum local = 0.151801, global = -0.0122507, cumulative = -3.3477
smoothSolver:  Solving for omega, Initial residual = 0.000115675, Final residual = 7.30651e-06, No Iterations 3
smoothSolver:  Solving for k, Initial residual = 0.0049688, Final residual = 0.000366527, No Iterations 3
ExecutionTime = 85.37 s  ClockTime = 85 s

Time = 95

smoothSolver:  Solving for Ux, Initial residual = 0.0016033, Final residual = 7.65078e-05, No Iterations 4
smoothSolver:  Solving for Uy, Initial residual = 0.00171258, Final residual = 8.04764e-05, No Iterations 4
smoothSolver:  Solving for Uz, Initial residual = 0.00129447, Final residual = 0.000128815, No Iterations 3
GAMG:  Solving for p, Initial residual = 0.00509848, Final residual = 0.000324022, No Iterations 2
time step continuity errors : sum local = 0.151057, global = -0.0119649, cumulative = -3.35966
smoothSolver:  Solving for omega, Initial residual = 0.000112272, Final residual = 7.07929e-06, No Iterations 3
smoothSolver:  Solving for k, Initial residual = 0.00483592, Final residual = 0.000356839, No Iterations 3
ExecutionTime = 86.23 s  ClockTime = 86 s

Time = 96

smoothSolver:  Solving for Ux, Initial residual = 0.00155996, Final residual = 7.5664e-05, No Iterations 4
smoothSolver:  Solving for Uy, Initial residual = 0.00167648, Final residual = 7.89096e-05, No Iterations 4
smoothSolver:  Solving for Uz, Initial residual = 0.00126379, Final residual = 5.8738e-05, No Iterations 4
GAMG:  Solving for p, Initial residual = 0.00492653, Final residual = 0.000327883, No Iterations 2
time step continuity errors : sum local = 0.152891, global = -0.0100456, cumulative = -3.36971
smoothSolver:  Solving for omega, Initial residual = 0.000109299, Final residual = 6.85143e-06, No Iterations 3
smoothSolver:  Solving for k, Initial residual = 0.00473641, Final residual = 0.00035533, No Iterations 3
ExecutionTime = 87.11 s  ClockTime = 87 s

Time = 97

smoothSolver:  Solving for Ux, Initial residual = 0.00153015, Final residual = 7.52998e-05, No Iterations 4
smoothSolver:  Solving for Uy, Initial residual = 0.00165698, Final residual = 7.88016e-05, No Iterations 4
smoothSolver:  Solving for Uz, Initial residual = 0.0012245, Final residual = 5.75724e-05, No Iterations 4
GAMG:  Solving for p, Initial residual = 0.00477109, Final residual = 0.000334373, No Iterations 2
time step continuity errors : sum local = 0.156035, global = -0.00684589, cumulative = -3.37655
smoothSolver:  Solving for omega, Initial residual = 0.000106721, Final residual = 6.67617e-06, No Iterations 3
smoothSolver:  Solving for k, Initial residual = 0.00464709, Final residual = 0.000354341, No Iterations 3
ExecutionTime = 87.99 s  ClockTime = 88 s

Time = 98

smoothSolver:  Solving for Ux, Initial residual = 0.00151466, Final residual = 7.52861e-05, No Iterations 4
smoothSolver:  Solving for Uy, Initial residual = 0.00164559, Final residual = 7.89967e-05, No Iterations 4
smoothSolver:  Solving for Uz, Initial residual = 0.00118898, Final residual = 5.59777e-05, No Iterations 4
GAMG:  Solving for p, Initial residual = 0.00465597, Final residual = 0.000335039, No Iterations 2
time step continuity errors : sum local = 0.156468, global = -0.00374637, cumulative = -3.3803
smoothSolver:  Solving for omega, Initial residual = 0.000104546, Final residual = 6.50833e-06, No Iterations 3
smoothSolver:  Solving for k, Initial residual = 0.0045698, Final residual = 0.000356289, No Iterations 3
ExecutionTime = 88.87 s  ClockTime = 89 s

Time = 99

smoothSolver:  Solving for Ux, Initial residual = 0.0015025, Final residual = 7.51473e-05, No Iterations 4
smoothSolver:  Solving for Uy, Initial residual = 0.0016353, Final residual = 7.90047e-05, No Iterations 4
smoothSolver:  Solving for Uz, Initial residual = 0.00116231, Final residual = 5.41559e-05, No Iterations 4
GAMG:  Solving for p, Initial residual = 0.0045914, Final residual = 0.000330616, No Iterations 2
time step continuity errors : sum local = 0.154429, global = -0.00188275, cumulative = -3.38218
smoothSolver:  Solving for omega, Initial residual = 0.000102069, Final residual = 6.40126e-06, No Iterations 3
smoothSolver:  Solving for k, Initial residual = 0.00450679, Final residual = 0.000355115, No Iterations 3
ExecutionTime = 89.76 s  ClockTime = 90 s

Time = 100

smoothSolver:  Solving for Ux, Initial residual = 0.0014903, Final residual = 7.50025e-05, No Iterations 4
smoothSolver:  Solving for Uy, Initial residual = 0.00162051, Final residual = 7.84552e-05, No Iterations 4
smoothSolver:  Solving for Uz, Initial residual = 0.00114293, Final residual = 0.000114131, No Iterations 3
GAMG:  Solving for p, Initial residual = 0.00452212, Final residual = 0.000322527, No Iterations 2
time step continuity errors : sum local = 0.150696, global = -0.00135377, cumulative = -3.38354
[...]
ExecutionTime = 247.89 s  ClockTime = 248 s

Time = 276

smoothSolver:  Solving for Ux, Initial residual = 0.000692399, Final residual = 3.50374e-05, No Iterations 4
smoothSolver:  Solving for Uy, Initial residual = 0.000677271, Final residual = 3.25065e-05, No Iterations 4
smoothSolver:  Solving for Uz, Initial residual = 0.000483631, Final residual = 2.54618e-05, No Iterations 4
GAMG:  Solving for p, Initial residual = 0.00143075, Final residual = 9.6025e-05, No Iterations 2
time step continuity errors : sum local = 0.0452216, global = 0.00112232, cumulative = -3.374
smoothSolver:  Solving for omega, Initial residual = 5.95553e-05, Final residual = 3.24431e-06, No Iterations 3
smoothSolver:  Solving for k, Initial residual = 0.00204756, Final residual = 0.000160677, No Iterations 3
ExecutionTime = 248.76 s  ClockTime = 249 s

Time = 277

smoothSolver:  Solving for Ux, Initial residual = 0.000683408, Final residual = 3.49238e-05, No Iterations 4
smoothSolver:  Solving for Uy, Initial residual = 0.000681684, Final residual = 3.30638e-05, No Iterations 4
smoothSolver:  Solving for Uz, Initial residual = 0.000487189, Final residual = 2.56782e-05, No Iterations 4
GAMG:  Solving for p, Initial residual = 0.00139833, Final residual = 9.54131e-05, No Iterations 2
time step continuity errors : sum local = 0.0449351, global = 0.000303761, cumulative = -3.37369
smoothSolver:  Solving for omega, Initial residual = 5.90156e-05, Final residual = 3.24156e-06, No Iterations 3
smoothSolver:  Solving for k, Initial residual = 0.00202955, Final residual = 0.000160122, No Iterations 3
ExecutionTime = 249.64 s  ClockTime = 250 s

Time = 278

smoothSolver:  Solving for Ux, Initial residual = 0.000677318, Final residual = 3.4878e-05, No Iterations 4
smoothSolver:  Solving for Uy, Initial residual = 0.000685944, Final residual = 3.36211e-05, No Iterations 4
smoothSolver:  Solving for Uz, Initial residual = 0.000490794, Final residual = 2.58739e-05, No Iterations 4
GAMG:  Solving for p, Initial residual = 0.0013667, Final residual = 9.59471e-05, No Iterations 2
time step continuity errors : sum local = 0.0451907, global = -0.000505978, cumulative = -3.3742
smoothSolver:  Solving for omega, Initial residual = 5.8066e-05, Final residual = 3.22357e-06, No Iterations 3
smoothSolver:  Solving for k, Initial residual = 0.00202371, Final residual = 0.000159994, No Iterations 3
ExecutionTime = 250.52 s  ClockTime = 251 s

Time = 279

smoothSolver:  Solving for Ux, Initial residual = 0.000676503, Final residual = 3.48546e-05, No Iterations 4
smoothSolver:  Solving for Uy, Initial residual = 0.000688329, Final residual = 3.4003e-05, No Iterations 4
smoothSolver:  Solving for Uz, Initial residual = 0.000492996, Final residual = 2.60471e-05, No Iterations 4
GAMG:  Solving for p, Initial residual = 0.00135985, Final residual = 9.73578e-05, No Iterations 2
time step continuity errors : sum local = 0.0458455, global = -0.0011545, cumulative = -3.37535
smoothSolver:  Solving for omega, Initial residual = 5.73243e-05, Final residual = 3.20528e-06, No Iterations 3
smoothSolver:  Solving for k, Initial residual = 0.00203319, Final residual = 0.000159721, No Iterations 3
ExecutionTime = 251.39 s  ClockTime = 252 s

Time = 280

smoothSolver:  Solving for Ux, Initial residual = 0.000677516, Final residual = 3.47098e-05, No Iterations 4
smoothSolver:  Solving for Uy, Initial residual = 0.000688991, Final residual = 3.42278e-05, No Iterations 4
smoothSolver:  Solving for Uz, Initial residual = 0.000493314, Final residual = 2.61026e-05, No Iterations 4
GAMG:  Solving for p, Initial residual = 0.00136047, Final residual = 9.88857e-05, No Iterations 2
time step continuity errors : sum local = 0.0465554, global = -0.00151754, cumulative = -3.37687
smoothSolver:  Solving for omega, Initial residual = 5.68792e-05, Final residual = 3.20256e-06, No Iterations 3
smoothSolver:  Solving for k, Initial residual = 0.0020407, Final residual = 0.000159441, No Iterations 3
ExecutionTime = 252.27 s  ClockTime = 253 s

Time = 281

smoothSolver:  Solving for Ux, Initial residual = 0.000676989, Final residual = 3.45735e-05, No Iterations 4
smoothSolver:  Solving for Uy, Initial residual = 0.000693424, Final residual = 3.44892e-05, No Iterations 4
smoothSolver:  Solving for Uz, Initial residual = 0.000493351, Final residual = 2.60806e-05, No Iterations 4
GAMG:  Solving for p, Initial residual = 0.00137213, Final residual = 0.000100196, No Iterations 2
time step continuity errors : sum local = 0.0471506, global = -0.0015308, cumulative = -3.3784
smoothSolver:  Solving for omega, Initial residual = 5.7541e-05, Final residual = 3.23591e-06, No Iterations 3
smoothSolver:  Solving for k, Initial residual = 0.00204238, Final residual = 0.000158937, No Iterations 3
ExecutionTime = 253.15 s  ClockTime = 254 s

Time = 282

smoothSolver:  Solving for Ux, Initial residual = 0.000678954, Final residual = 3.43886e-05, No Iterations 4
smoothSolver:  Solving for Uy, Initial residual = 0.000698997, Final residual = 3.47477e-05, No Iterations 4
smoothSolver:  Solving for Uz, Initial residual = 0.000495076, Final residual = 2.60736e-05, No Iterations 4
GAMG:  Solving for p, Initial residual = 0.00139949, Final residual = 0.000102612, No Iterations 2
time step continuity errors : sum local = 0.048271, global = -0.00124327, cumulative = -3.37964
smoothSolver:  Solving for omega, Initial residual = 5.90693e-05, Final residual = 3.29257e-06, No Iterations 3
smoothSolver:  Solving for k, Initial residual = 0.00206246, Final residual = 0.000159022, No Iterations 3
ExecutionTime = 254.02 s  ClockTime = 254 s

Time = 283

smoothSolver:  Solving for Ux, Initial residual = 0.000684072, Final residual = 3.43179e-05, No Iterations 4
smoothSolver:  Solving for Uy, Initial residual = 0.000706785, Final residual = 3.49479e-05, No Iterations 4
smoothSolver:  Solving for Uz, Initial residual = 0.000496323, Final residual = 2.61199e-05, No Iterations 4
GAMG:  Solving for p, Initial residual = 0.00143364, Final residual = 0.000107712, No Iterations 2
time step continuity errors : sum local = 0.0506475, global = -0.000803771, cumulative = -3.38045
smoothSolver:  Solving for omega, Initial residual = 6.0643e-05, Final residual = 3.38795e-06, No Iterations 3
smoothSolver:  Solving for k, Initial residual = 0.00210573, Final residual = 0.000160751, No Iterations 3
ExecutionTime = 254.9 s  ClockTime = 255 s

Time = 284

smoothSolver:  Solving for Ux, Initial residual = 0.000689075, Final residual = 3.4251e-05, No Iterations 4
smoothSolver:  Solving for Uy, Initial residual = 0.000715478, Final residual = 3.50217e-05, No Iterations 4
smoothSolver:  Solving for Uz, Initial residual = 0.000498167, Final residual = 2.61602e-05, No Iterations 4
GAMG:  Solving for p, Initial residual = 0.00146105, Final residual = 0.000115103, No Iterations 2
time step continuity errors : sum local = 0.0541128, global = -0.000386368, cumulative = -3.38083
smoothSolver:  Solving for omega, Initial residual = 6.184e-05, Final residual = 3.48985e-06, No Iterations 3
smoothSolver:  Solving for k, Initial residual = 0.00215073, Final residual = 0.000164546, No Iterations 3
ExecutionTime = 255.78 s  ClockTime = 256 s

Time = 285

smoothSolver:  Solving for Ux, Initial residual = 0.000691752, Final residual = 3.42985e-05, No Iterations 4
smoothSolver:  Solving for Uy, Initial residual = 0.000721634, Final residual = 3.50335e-05, No Iterations 4
smoothSolver:  Solving for Uz, Initial residual = 0.000499782, Final residual = 2.6093e-05, No Iterations 4
GAMG:  Solving for p, Initial residual = 0.00148507, Final residual = 0.000123955, No Iterations 2
time step continuity errors : sum local = 0.0582623, global = -0.000113185, cumulative = -3.38095
smoothSolver:  Solving for omega, Initial residual = 6.27183e-05, Final residual = 3.57841e-06, No Iterations 3
smoothSolver:  Solving for k, Initial residual = 0.00220337, Final residual = 0.000169624, No Iterations 3
ExecutionTime = 256.66 s  ClockTime = 257 s

Time = 286

smoothSolver:  Solving for Ux, Initial residual = 0.000693609, Final residual = 3.44045e-05, No Iterations 4
smoothSolver:  Solving for Uy, Initial residual = 0.000724404, Final residual = 3.50144e-05, No Iterations 4
smoothSolver:  Solving for Uz, Initial residual = 0.000499624, Final residual = 2.59086e-05, No Iterations 4
GAMG:  Solving for p, Initial residual = 0.00150485, Final residual = 0.000129241, No Iterations 2
time step continuity errors : sum local = 0.0607545, global = -4.25842e-05, cumulative = -3.38099
smoothSolver:  Solving for omega, Initial residual = 6.3162e-05, Final residual = 3.61808e-06, No Iterations 3
smoothSolver:  Solving for k, Initial residual = 0.00223076, Final residual = 0.000175259, No Iterations 3
ExecutionTime = 257.53 s  ClockTime = 258 s

Time = 287

smoothSolver:  Solving for Ux, Initial residual = 0.000692198, Final residual = 3.46951e-05, No Iterations 4
smoothSolver:  Solving for Uy, Initial residual = 0.000726436, Final residual = 3.50254e-05, No Iterations 4
smoothSolver:  Solving for Uz, Initial residual = 0.000498654, Final residual = 2.55668e-05, No Iterations 4
GAMG:  Solving for p, Initial residual = 0.00151749, Final residual = 0.00012721, No Iterations 2
time step continuity errors : sum local = 0.0598141, global = -0.000173944, cumulative = -3.38116
smoothSolver:  Solving for omega, Initial residual = 6.29291e-05, Final residual = 3.60959e-06, No Iterations 3
smoothSolver:  Solving for k, Initial residual = 0.00225984, Final residual = 0.000181041, No Iterations 3
ExecutionTime = 258.4 s  ClockTime = 259 s

Time = 288

smoothSolver:  Solving for Ux, Initial residual = 0.000689866, Final residual = 3.4899e-05, No Iterations 4
smoothSolver:  Solving for Uy, Initial residual = 0.000725644, Final residual = 3.4929e-05, No Iterations 4
smoothSolver:  Solving for Uz, Initial residual = 0.000496882, Final residual = 2.5223e-05, No Iterations 4
GAMG:  Solving for p, Initial residual = 0.00152215, Final residual = 0.000122079, No Iterations 2
time step continuity errors : sum local = 0.0574361, global = -0.000463537, cumulative = -3.38163
smoothSolver:  Solving for omega, Initial residual = 6.18351e-05, Final residual = 3.56981e-06, No Iterations 3
smoothSolver:  Solving for k, Initial residual = 0.00228954, Final residual = 0.000186482, No Iterations 3
ExecutionTime = 259.28 s  ClockTime = 260 s

Time = 289

smoothSolver:  Solving for Ux, Initial residual = 0.000686926, Final residual = 3.49505e-05, No Iterations 4
smoothSolver:  Solving for Uy, Initial residual = 0.000725672, Final residual = 3.48506e-05, No Iterations 4
smoothSolver:  Solving for Uz, Initial residual = 0.00049508, Final residual = 2.50144e-05, No Iterations 4
GAMG:  Solving for p, Initial residual = 0.00150864, Final residual = 0.000113283, No Iterations 2
time step continuity errors : sum local = 0.0533334, global = -0.000852068, cumulative = -3.38248
smoothSolver:  Solving for omega, Initial residual = 6.00469e-05, Final residual = 3.50118e-06, No Iterations 3
smoothSolver:  Solving for k, Initial residual = 0.00229532, Final residual = 0.000189228, No Iterations 3
ExecutionTime = 260.16 s  ClockTime = 261 s

Time = 290

smoothSolver:  Solving for Ux, Initial residual = 0.00068638, Final residual = 3.47695e-05, No Iterations 4
smoothSolver:  Solving for Uy, Initial residual = 0.000725533, Final residual = 3.4757e-05, No Iterations 4
smoothSolver:  Solving for Uz, Initial residual = 0.000491401, Final residual = 2.48541e-05, No Iterations 4
GAMG:  Solving for p, Initial residual = 0.00148216, Final residual = 0.000104314, No Iterations 2
time step continuity errors : sum local = 0.0491573, global = -0.00127478, cumulative = -3.38375
smoothSolver:  Solving for omega, Initial residual = 5.87683e-05, Final residual = 3.40732e-06, No Iterations 3
smoothSolver:  Solving for k, Initial residual = 0.00228471, Final residual = 0.00018961, No Iterations 3
ExecutionTime = 261.03 s  ClockTime = 261 s

Time = 291

smoothSolver:  Solving for Ux, Initial residual = 0.000691238, Final residual = 3.4529e-05, No Iterations 4
smoothSolver:  Solving for Uy, Initial residual = 0.000726394, Final residual = 3.44116e-05, No Iterations 4
smoothSolver:  Solving for Uz, Initial residual = 0.000488945, Final residual = 2.4679e-05, No Iterations 4
GAMG:  Solving for p, Initial residual = 0.00146637, Final residual = 0.000103308, No Iterations 2
time step continuity errors : sum local = 0.0487225, global = -0.00169417, cumulative = -3.38545
smoothSolver:  Solving for omega, Initial residual = 5.7798e-05, Final residual = 3.30945e-06, No Iterations 3
smoothSolver:  Solving for k, Initial residual = 0.00227315, Final residual = 0.000187641, No Iterations 3
ExecutionTime = 261.91 s  ClockTime = 262 s

Time = 292

smoothSolver:  Solving for Ux, Initial residual = 0.000696973, Final residual = 3.42868e-05, No Iterations 4
smoothSolver:  Solving for Uy, Initial residual = 0.000726675, Final residual = 3.38021e-05, No Iterations 4
smoothSolver:  Solving for Uz, Initial residual = 0.000486302, Final residual = 2.46351e-05, No Iterations 4
GAMG:  Solving for p, Initial residual = 0.00146032, Final residual = 0.000104881, No Iterations 2
time step continuity errors : sum local = 0.0495032, global = -0.002064, cumulative = -3.38751
smoothSolver:  Solving for omega, Initial residual = 5.67496e-05, Final residual = 3.20153e-06, No Iterations 3
smoothSolver:  Solving for k, Initial residual = 0.00224798, Final residual = 0.000184173, No Iterations 3
ExecutionTime = 262.79 s  ClockTime = 263 s

Time = 293

smoothSolver:  Solving for Ux, Initial residual = 0.000700165, Final residual = 3.38712e-05, No Iterations 4
smoothSolver:  Solving for Uy, Initial residual = 0.000725038, Final residual = 3.32394e-05, No Iterations 4
smoothSolver:  Solving for Uz, Initial residual = 0.000480325, Final residual = 2.45221e-05, No Iterations 4
GAMG:  Solving for p, Initial residual = 0.00146158, Final residual = 0.000105238, No Iterations 2
time step continuity errors : sum local = 0.0496907, global = -0.00229027, cumulative = -3.3898
smoothSolver:  Solving for omega, Initial residual = 5.55129e-05, Final residual = 3.12327e-06, No Iterations 3
smoothSolver:  Solving for k, Initial residual = 0.00220242, Final residual = 0.000179235, No Iterations 3
ExecutionTime = 263.67 s  ClockTime = 264 s

Time = 294

smoothSolver:  Solving for Ux, Initial residual = 0.00069944, Final residual = 3.34907e-05, No Iterations 4
smoothSolver:  Solving for Uy, Initial residual = 0.000723166, Final residual = 7.1853e-05, No Iterations 3
smoothSolver:  Solving for Uz, Initial residual = 0.000475922, Final residual = 2.43885e-05, No Iterations 4
GAMG:  Solving for p, Initial residual = 0.00146351, Final residual = 0.000106135, No Iterations 2
time step continuity errors : sum local = 0.0501256, global = -0.00230718, cumulative = -3.39211
smoothSolver:  Solving for omega, Initial residual = 5.4943e-05, Final residual = 3.0616e-06, No Iterations 3
smoothSolver:  Solving for k, Initial residual = 0.00216049, Final residual = 0.000174053, No Iterations 3
ExecutionTime = 264.53 s  ClockTime = 265 s

Time = 295

smoothSolver:  Solving for Ux, Initial residual = 0.000697048, Final residual = 3.31638e-05, No Iterations 4
smoothSolver:  Solving for Uy, Initial residual = 0.000729379, Final residual = 7.19181e-05, No Iterations 3
smoothSolver:  Solving for Uz, Initial residual = 0.000472895, Final residual = 2.42334e-05, No Iterations 4
GAMG:  Solving for p, Initial residual = 0.00145572, Final residual = 0.000106579, No Iterations 2
time step continuity errors : sum local = 0.0503282, global = -0.00207323, cumulative = -3.39418
smoothSolver:  Solving for omega, Initial residual = 5.48349e-05, Final residual = 3.04094e-06, No Iterations 3
smoothSolver:  Solving for k, Initial residual = 0.0021186, Final residual = 0.000168694, No Iterations 3
ExecutionTime = 265.4 s  ClockTime = 266 s

Time = 296

smoothSolver:  Solving for Ux, Initial residual = 0.000695448, Final residual = 3.29268e-05, No Iterations 4
smoothSolver:  Solving for Uy, Initial residual = 0.000732121, Final residual = 7.19077e-05, No Iterations 3
smoothSolver:  Solving for Uz, Initial residual = 0.000471859, Final residual = 2.41681e-05, No Iterations 4
GAMG:  Solving for p, Initial residual = 0.00144618, Final residual = 0.000107795, No Iterations 2
time step continuity errors : sum local = 0.0508991, global = -0.00160178, cumulative = -3.39579
smoothSolver:  Solving for omega, Initial residual = 5.50518e-05, Final residual = 3.01709e-06, No Iterations 3
smoothSolver:  Solving for k, Initial residual = 0.00207621, Final residual = 0.000163159, No Iterations 3
ExecutionTime = 266.28 s  ClockTime = 267 s

Time = 297

smoothSolver:  Solving for Ux, Initial residual = 0.000694757, Final residual = 3.31709e-05, No Iterations 4
smoothSolver:  Solving for Uy, Initial residual = 0.000724912, Final residual = 7.15231e-05, No Iterations 3
smoothSolver:  Solving for Uz, Initial residual = 0.000472195, Final residual = 2.42495e-05, No Iterations 4
GAMG:  Solving for p, Initial residual = 0.00143219, Final residual = 0.000106372, No Iterations 2
time step continuity errors : sum local = 0.0502177, global = -0.000984338, cumulative = -3.39677
smoothSolver:  Solving for omega, Initial residual = 5.52593e-05, Final residual = 3.00552e-06, No Iterations 3
smoothSolver:  Solving for k, Initial residual = 0.00203472, Final residual = 0.000158251, No Iterations 3
ExecutionTime = 267.14 s  ClockTime = 268 s

Time = 298

smoothSolver:  Solving for Ux, Initial residual = 0.000694186, Final residual = 3.34568e-05, No Iterations 4
smoothSolver:  Solving for Uy, Initial residual = 0.000711555, Final residual = 7.09175e-05, No Iterations 3
smoothSolver:  Solving for Uz, Initial residual = 0.000472715, Final residual = 2.42341e-05, No Iterations 4
GAMG:  Solving for p, Initial residual = 0.00140988, Final residual = 0.000102749, No Iterations 2
time step continuity errors : sum local = 0.0485076, global = -0.000372695, cumulative = -3.39714
smoothSolver:  Solving for omega, Initial residual = 5.55695e-05, Final residual = 3.00497e-06, No Iterations 3
smoothSolver:  Solving for k, Initial residual = 0.0019892, Final residual = 0.000154071, No Iterations 3
ExecutionTime = 268.02 s  ClockTime = 268 s

Time = 299

smoothSolver:  Solving for Ux, Initial residual = 0.000691742, Final residual = 3.37988e-05, No Iterations 4
smoothSolver:  Solving for Uy, Initial residual = 0.000696099, Final residual = 3.17793e-05, No Iterations 4
smoothSolver:  Solving for Uz, Initial residual = 0.000471342, Final residual = 2.41226e-05, No Iterations 4
GAMG:  Solving for p, Initial residual = 0.00139799, Final residual = 9.72013e-05, No Iterations 2
time step continuity errors : sum local = 0.0458829, global = 0.000106666, cumulative = -3.39704
smoothSolver:  Solving for omega, Initial residual = 5.54524e-05, Final residual = 3.03329e-06, No Iterations 3
smoothSolver:  Solving for k, Initial residual = 0.0019502, Final residual = 0.00015057, No Iterations 3
ExecutionTime = 268.9 s  ClockTime = 269 s

Time = 300

smoothSolver:  Solving for Ux, Initial residual = 0.000687443, Final residual = 3.39508e-05, No Iterations 4
smoothSolver:  Solving for Uy, Initial residual = 0.00067054, Final residual = 3.08224e-05, No Iterations 4
smoothSolver:  Solving for Uz, Initial residual = 0.000468632, Final residual = 2.39312e-05, No Iterations 4
GAMG:  Solving for p, Initial residual = 0.00137181, Final residual = 9.33749e-05, No Iterations 2
time step continuity errors : sum local = 0.0440781, global = 0.000353066, cumulative = -3.39668
smoothSolver:  Solving for omega, Initial residual = 5.53169e-05, Final residual = 3.0577e-06, No Iterations 3
smoothSolver:  Solving for k, Initial residual = 0.00191243, Final residual = 0.000148143, No Iterations 3
ExecutionTime = 271.7 s  ClockTime = 272 s

End

