/*---------------------------------------------------------------------------*\
| =========                 |                                                 |
| \\      /  F ield         | OpenFOAM: The Open Source CFD Toolbox           |
|  \\    /   O peration     | Version:  2.1.1                                 |
|   \\  /    A nd           | Web:      www.OpenFOAM.org                      |
|    \\/     M anipulation  |                                                 |
\*---------------------------------------------------------------------------*/
Build  : 2.1.1-221db2718bbb
Exec   : patchAverage p airBox_abInlet -latestTime
Date   : Aug 27 2012
Time   : 07:25:50
Host   : "nathan-Latitude-D820"
PID    : 13949
Case   : /home/nathan/Desktop/Thesis/Benchmark-4-Airbox2/iter_0059
nProcs : 1
sigFpe : Enabling floating point exception trapping (FOAM_SIGFPE).
fileModificationChecking : Monitoring run-time modified files using timeStampMaster
allowSystemOperations : Disallowing user-supplied system call operations

// * * * * * * * * * * * * * * * * * * * * * * * * * * * * * * * * * * * * * //
Create time

Create mesh for time = 300

Time = 300
    Reading volScalarField p
    Average of volScalarField over patch airBox_abInlet[1] = -129.748

End

