/*---------------------------------------------------------------------------*\
| =========                 |                                                 |
| \\      /  F ield         | OpenFOAM: The Open Source CFD Toolbox           |
|  \\    /   O peration     | Version:  2.1.1                                 |
|   \\  /    A nd           | Web:      www.OpenFOAM.org                      |
|    \\/     M anipulation  |                                                 |
\*---------------------------------------------------------------------------*/
Build  : 2.1.1-221db2718bbb
Exec   : simpleFoam
Date   : Aug 26 2012
Time   : 22:57:53
Host   : "nathan-Latitude-D820"
PID    : 11684
Case   : /home/nathan/Desktop/Thesis/Benchmark-4-Airbox2/iter_0035
nProcs : 1
sigFpe : Enabling floating point exception trapping (FOAM_SIGFPE).
fileModificationChecking : Monitoring run-time modified files using timeStampMaster
allowSystemOperations : Disallowing user-supplied system call operations

// * * * * * * * * * * * * * * * * * * * * * * * * * * * * * * * * * * * * * //
Create time

Create mesh for time = 0

Reading field p

Reading field U

Reading/calculating face flux field phi

Selecting incompressible transport model Newtonian
Selecting RAS turbulence model kOmegaSST
kOmegaSSTCoeffs
{
    alphaK1         0.85034;
    alphaK2         1;
    alphaOmega1     0.5;
    alphaOmega2     0.85616;
    gamma1          0.5532;
    gamma2          0.4403;
    beta1           0.075;
    beta2           0.0828;
    betaStar        0.09;
    a1              0.31;
    c1              10;
}

No field sources present


SIMPLE: no convergence criteria found. Calculations will run for 300 steps.


Starting time loop

Reading surface description:
    abInlet

Reading surface description:
    abOutlet

Time = 1

smoothSolver:  Solving for Ux, Initial residual = 0.0685371, Final residual = 0.00420882, No Iterations 4
smoothSolver:  Solving for Uy, Initial residual = 0.172977, Final residual = 0.0162536, No Iterations 3
smoothSolver:  Solving for Uz, Initial residual = 0.0911706, Final residual = 0.00479589, No Iterations 4
GAMG:  Solving for p, Initial residual = 0.706847, Final residual = 0.0390902, No Iterations 4
time step continuity errors : sum local = 2.28879, global = 0.136811, cumulative = 0.136811
smoothSolver:  Solving for omega, Initial residual = 0.0100206, Final residual = 0.000855125, No Iterations 3
bounding omega, min: -636.967 max: 1.10517e+06 average: 16188.9
smoothSolver:  Solving for k, Initial residual = 1, Final residual = 0.0665006, No Iterations 3
ExecutionTime = 3.5 s  ClockTime = 4 s

Time = 2

smoothSolver:  Solving for Ux, Initial residual = 0.0275647, Final residual = 0.00135695, No Iterations 4
smoothSolver:  Solving for Uy, Initial residual = 0.0706712, Final residual = 0.00600496, No Iterations 3
smoothSolver:  Solving for Uz, Initial residual = 0.0404295, Final residual = 0.00397688, No Iterations 3
GAMG:  Solving for p, Initial residual = 0.0381152, Final residual = 0.00372916, No Iterations 3
time step continuity errors : sum local = 3.96303, global = 0.338745, cumulative = 0.475557
smoothSolver:  Solving for omega, Initial residual = 0.999744, Final residual = 0.0924781, No Iterations 2
smoothSolver:  Solving for k, Initial residual = 0.551711, Final residual = 8.65812e-07, No Iterations 1
ExecutionTime = 4.38 s  ClockTime = 5 s

Time = 3

smoothSolver:  Solving for Ux, Initial residual = 0.029983, Final residual = 0.00156377, No Iterations 4
smoothSolver:  Solving for Uy, Initial residual = 0.0711747, Final residual = 0.00350001, No Iterations 4
smoothSolver:  Solving for Uz, Initial residual = 0.0558005, Final residual = 0.00548083, No Iterations 3
GAMG:  Solving for p, Initial residual = 0.0184733, Final residual = 0.00132931, No Iterations 3
time step continuity errors : sum local = 2.32796, global = 0.1498, cumulative = 0.625356
smoothSolver:  Solving for omega, Initial residual = 0.538551, Final residual = 2.99641e-11, No Iterations 1
bounding omega, min: -1.22875e+08 max: 2.48243e+12 average: 1.8497e+08
smoothSolver:  Solving for k, Initial residual = 0.0721544, Final residual = 1.32246e-06, No Iterations 1
ExecutionTime = 5.27 s  ClockTime = 5 s

Time = 4

smoothSolver:  Solving for Ux, Initial residual = 0.0288319, Final residual = 0.00166766, No Iterations 4
smoothSolver:  Solving for Uy, Initial residual = 0.0574645, Final residual = 0.00302817, No Iterations 4
smoothSolver:  Solving for Uz, Initial residual = 0.0551914, Final residual = 0.00257896, No Iterations 4
GAMG:  Solving for p, Initial residual = 0.0175938, Final residual = 0.00130121, No Iterations 3
time step continuity errors : sum local = 2.48663, global = 0.252656, cumulative = 0.878012
smoothSolver:  Solving for omega, Initial residual = 0.538555, Final residual = 1.40139e-10, No Iterations 1
bounding omega, min: -334572 max: 7.44728e+11 average: 5.55617e+07
smoothSolver:  Solving for k, Initial residual = 0.0156028, Final residual = 3.12306e-06, No Iterations 1
ExecutionTime = 6.17 s  ClockTime = 6 s

Time = 5

smoothSolver:  Solving for Ux, Initial residual = 0.0161892, Final residual = 0.00077917, No Iterations 4
smoothSolver:  Solving for Uy, Initial residual = 0.0353608, Final residual = 0.00346375, No Iterations 3
smoothSolver:  Solving for Uz, Initial residual = 0.0307863, Final residual = 0.0014164, No Iterations 4
GAMG:  Solving for p, Initial residual = 0.0195403, Final residual = 0.0015114, No Iterations 3
time step continuity errors : sum local = 2.3424, global = -0.107099, cumulative = 0.770913
smoothSolver:  Solving for omega, Initial residual = 0.538555, Final residual = 5.95865e-10, No Iterations 1
smoothSolver:  Solving for k, Initial residual = 0.00398158, Final residual = 8.56666e-06, No Iterations 1
ExecutionTime = 7.05 s  ClockTime = 7 s

Time = 6

smoothSolver:  Solving for Ux, Initial residual = 0.0212182, Final residual = 0.000967198, No Iterations 4
smoothSolver:  Solving for Uy, Initial residual = 0.0449172, Final residual = 0.00225038, No Iterations 4
smoothSolver:  Solving for Uz, Initial residual = 0.0325017, Final residual = 0.00179156, No Iterations 4
GAMG:  Solving for p, Initial residual = 0.0222578, Final residual = 0.00136054, No Iterations 3
time step continuity errors : sum local = 1.68353, global = -0.132446, cumulative = 0.638467
smoothSolver:  Solving for omega, Initial residual = 0.538555, Final residual = 2.35424e-09, No Iterations 1
bounding omega, min: -1336.05 max: 6.70255e+10 average: 5.0191e+06
smoothSolver:  Solving for k, Initial residual = 0.00114718, Final residual = 2.59578e-05, No Iterations 1
ExecutionTime = 7.95 s  ClockTime = 8 s

Time = 7

smoothSolver:  Solving for Ux, Initial residual = 0.0254683, Final residual = 0.00129632, No Iterations 4
smoothSolver:  Solving for Uy, Initial residual = 0.0436648, Final residual = 0.00228963, No Iterations 4
smoothSolver:  Solving for Uz, Initial residual = 0.0326427, Final residual = 0.00192597, No Iterations 4
GAMG:  Solving for p, Initial residual = 0.0268759, Final residual = 0.00230265, No Iterations 3
time step continuity errors : sum local = 2.23537, global = -0.291367, cumulative = 0.3471
smoothSolver:  Solving for omega, Initial residual = 0.538555, Final residual = 8.96507e-09, No Iterations 1
smoothSolver:  Solving for k, Initial residual = 0.000516864, Final residual = 3.56377e-05, No Iterations 2
ExecutionTime = 8.84 s  ClockTime = 9 s

Time = 8

smoothSolver:  Solving for Ux, Initial residual = 0.0213287, Final residual = 0.00114975, No Iterations 4
smoothSolver:  Solving for Uy, Initial residual = 0.0344461, Final residual = 0.00171221, No Iterations 4
smoothSolver:  Solving for Uz, Initial residual = 0.0236777, Final residual = 0.00121806, No Iterations 4
GAMG:  Solving for p, Initial residual = 0.0270322, Final residual = 0.00239128, No Iterations 3
time step continuity errors : sum local = 1.98228, global = -0.312748, cumulative = 0.034352
smoothSolver:  Solving for omega, Initial residual = 0.538555, Final residual = 3.36714e-08, No Iterations 1
smoothSolver:  Solving for k, Initial residual = 0.000753871, Final residual = 5.10947e-05, No Iterations 3
ExecutionTime = 9.74 s  ClockTime = 10 s

Time = 9

smoothSolver:  Solving for Ux, Initial residual = 0.0170594, Final residual = 0.000853215, No Iterations 4
smoothSolver:  Solving for Uy, Initial residual = 0.0367663, Final residual = 0.00197112, No Iterations 4
smoothSolver:  Solving for Uz, Initial residual = 0.0247857, Final residual = 0.00238305, No Iterations 3
GAMG:  Solving for p, Initial residual = 0.0284465, Final residual = 0.00159443, No Iterations 3
time step continuity errors : sum local = 1.2119, global = -0.0655385, cumulative = -0.0311865
smoothSolver:  Solving for omega, Initial residual = 0.538556, Final residual = 1.26949e-07, No Iterations 1
smoothSolver:  Solving for k, Initial residual = 0.00208611, Final residual = 0.000162821, No Iterations 3
ExecutionTime = 10.64 s  ClockTime = 11 s

Time = 10

smoothSolver:  Solving for Ux, Initial residual = 0.0155871, Final residual = 0.000783935, No Iterations 4
smoothSolver:  Solving for Uy, Initial residual = 0.0341315, Final residual = 0.00190801, No Iterations 4
smoothSolver:  Solving for Uz, Initial residual = 0.0257385, Final residual = 0.00122354, No Iterations 4
GAMG:  Solving for p, Initial residual = 0.0296273, Final residual = 0.00195203, No Iterations 3
time step continuity errors : sum local = 1.39976, global = 0.245465, cumulative = 0.214279
smoothSolver:  Solving for omega, Initial residual = 0.538559, Final residual = 4.80851e-07, No Iterations 1
smoothSolver:  Solving for k, Initial residual = 0.00594529, Final residual = 0.000483828, No Iterations 3
ExecutionTime = 11.54 s  ClockTime = 12 s

Time = 11

smoothSolver:  Solving for Ux, Initial residual = 0.0141019, Final residual = 0.000752229, No Iterations 4
smoothSolver:  Solving for Uy, Initial residual = 0.0255149, Final residual = 0.00131428, No Iterations 4
smoothSolver:  Solving for Uz, Initial residual = 0.020421, Final residual = 0.00105154, No Iterations 4
GAMG:  Solving for p, Initial residual = 0.027655, Final residual = 0.00257421, No Iterations 3
time step continuity errors : sum local = 1.76307, global = 0.179151, cumulative = 0.393429
smoothSolver:  Solving for omega, Initial residual = 0.538557, Final residual = 1.8197e-06, No Iterations 1
smoothSolver:  Solving for k, Initial residual = 0.0135334, Final residual = 0.0011354, No Iterations 3
ExecutionTime = 12.43 s  ClockTime = 13 s

Time = 12

smoothSolver:  Solving for Ux, Initial residual = 0.0134384, Final residual = 0.000719925, No Iterations 4
smoothSolver:  Solving for Uy, Initial residual = 0.0198102, Final residual = 0.000904416, No Iterations 4
smoothSolver:  Solving for Uz, Initial residual = 0.0171439, Final residual = 0.000848434, No Iterations 4
GAMG:  Solving for p, Initial residual = 0.0251271, Final residual = 0.0020116, No Iterations 3
time step continuity errors : sum local = 1.38406, global = 0.0893205, cumulative = 0.48275
smoothSolver:  Solving for omega, Initial residual = 0.538436, Final residual = 6.97092e-06, No Iterations 1
smoothSolver:  Solving for k, Initial residual = 0.0216725, Final residual = 0.00185261, No Iterations 3
ExecutionTime = 13.34 s  ClockTime = 14 s

Time = 13

smoothSolver:  Solving for Ux, Initial residual = 0.013271, Final residual = 0.000698412, No Iterations 4
smoothSolver:  Solving for Uy, Initial residual = 0.0198937, Final residual = 0.000994495, No Iterations 4
smoothSolver:  Solving for Uz, Initial residual = 0.0190616, Final residual = 0.00109927, No Iterations 4
GAMG:  Solving for p, Initial residual = 0.0240183, Final residual = 0.00237376, No Iterations 2
time step continuity errors : sum local = 1.66436, global = -0.181839, cumulative = 0.300911
smoothSolver:  Solving for omega, Initial residual = 0.536747, Final residual = 2.80465e-05, No Iterations 1
smoothSolver:  Solving for k, Initial residual = 0.0260191, Final residual = 0.00219406, No Iterations 3
ExecutionTime = 14.21 s  ClockTime = 14 s

Time = 14

smoothSolver:  Solving for Ux, Initial residual = 0.0129125, Final residual = 0.000681984, No Iterations 4
smoothSolver:  Solving for Uy, Initial residual = 0.0190385, Final residual = 0.000958066, No Iterations 4
smoothSolver:  Solving for Uz, Initial residual = 0.0184113, Final residual = 0.00112396, No Iterations 4
GAMG:  Solving for p, Initial residual = 0.0235947, Final residual = 0.00165023, No Iterations 3
time step continuity errors : sum local = 1.11221, global = -0.18187, cumulative = 0.119041
smoothSolver:  Solving for omega, Initial residual = 0.517485, Final residual = 0.000126081, No Iterations 1
smoothSolver:  Solving for k, Initial residual = 0.0274889, Final residual = 0.00225614, No Iterations 3
ExecutionTime = 15.1 s  ClockTime = 15 s

Time = 15

smoothSolver:  Solving for Ux, Initial residual = 0.0128312, Final residual = 0.000693554, No Iterations 4
smoothSolver:  Solving for Uy, Initial residual = 0.0202224, Final residual = 0.00103781, No Iterations 4
smoothSolver:  Solving for Uz, Initial residual = 0.0196081, Final residual = 0.00116939, No Iterations 4
GAMG:  Solving for p, Initial residual = 0.0233998, Final residual = 0.00171026, No Iterations 3
time step continuity errors : sum local = 1.08222, global = -0.0776544, cumulative = 0.0413864
smoothSolver:  Solving for omega, Initial residual = 0.367646, Final residual = 0.00053514, No Iterations 1
smoothSolver:  Solving for k, Initial residual = 0.0278101, Final residual = 0.00221939, No Iterations 3
ExecutionTime = 16.01 s  ClockTime = 16 s

Time = 16

smoothSolver:  Solving for Ux, Initial residual = 0.0135247, Final residual = 0.000769916, No Iterations 4
smoothSolver:  Solving for Uy, Initial residual = 0.0216718, Final residual = 0.00117088, No Iterations 4
smoothSolver:  Solving for Uz, Initial residual = 0.0214864, Final residual = 0.00122862, No Iterations 4
GAMG:  Solving for p, Initial residual = 0.0261557, Final residual = 0.00149417, No Iterations 3
time step continuity errors : sum local = 0.834665, global = -0.0430338, cumulative = -0.00164746
smoothSolver:  Solving for omega, Initial residual = 0.0883081, Final residual = 0.000980635, No Iterations 1
smoothSolver:  Solving for k, Initial residual = 0.0277995, Final residual = 0.00221556, No Iterations 3
ExecutionTime = 16.91 s  ClockTime = 17 s

Time = 17

smoothSolver:  Solving for Ux, Initial residual = 0.0144298, Final residual = 0.000858949, No Iterations 4
smoothSolver:  Solving for Uy, Initial residual = 0.0215456, Final residual = 0.00119521, No Iterations 4
smoothSolver:  Solving for Uz, Initial residual = 0.0210817, Final residual = 0.00122397, No Iterations 4
GAMG:  Solving for p, Initial residual = 0.0291519, Final residual = 0.00259076, No Iterations 2
time step continuity errors : sum local = 1.27033, global = 0.00602632, cumulative = 0.00437886
smoothSolver:  Solving for omega, Initial residual = 0.011481, Final residual = 0.000967457, No Iterations 1
smoothSolver:  Solving for k, Initial residual = 0.0280868, Final residual = 0.00224018, No Iterations 3
ExecutionTime = 17.78 s  ClockTime = 18 s

Time = 18

smoothSolver:  Solving for Ux, Initial residual = 0.0146391, Final residual = 0.000869354, No Iterations 4
smoothSolver:  Solving for Uy, Initial residual = 0.0201148, Final residual = 0.00110099, No Iterations 4
smoothSolver:  Solving for Uz, Initial residual = 0.0196535, Final residual = 0.00116101, No Iterations 4
GAMG:  Solving for p, Initial residual = 0.0292116, Final residual = 0.00264828, No Iterations 2
time step continuity errors : sum local = 1.23951, global = 0.103861, cumulative = 0.10824
smoothSolver:  Solving for omega, Initial residual = 0.00309862, Final residual = 0.000161737, No Iterations 3
smoothSolver:  Solving for k, Initial residual = 0.0276452, Final residual = 0.00218224, No Iterations 3
ExecutionTime = 18.66 s  ClockTime = 19 s

Time = 19

smoothSolver:  Solving for Ux, Initial residual = 0.0150339, Final residual = 0.000892285, No Iterations 4
smoothSolver:  Solving for Uy, Initial residual = 0.0192424, Final residual = 0.0010366, No Iterations 4
smoothSolver:  Solving for Uz, Initial residual = 0.0193139, Final residual = 0.00113828, No Iterations 4
GAMG:  Solving for p, Initial residual = 0.0291888, Final residual = 0.00252313, No Iterations 2
time step continuity errors : sum local = 1.14581, global = 0.0386102, cumulative = 0.14685
smoothSolver:  Solving for omega, Initial residual = 0.00199678, Final residual = 0.00014408, No Iterations 3
smoothSolver:  Solving for k, Initial residual = 0.0277876, Final residual = 0.00214266, No Iterations 3
ExecutionTime = 19.55 s  ClockTime = 20 s

Time = 20

smoothSolver:  Solving for Ux, Initial residual = 0.015596, Final residual = 0.000920256, No Iterations 4
smoothSolver:  Solving for Uy, Initial residual = 0.0189991, Final residual = 0.00100175, No Iterations 4
smoothSolver:  Solving for Uz, Initial residual = 0.0199735, Final residual = 0.00117763, No Iterations 4
GAMG:  Solving for p, Initial residual = 0.0293759, Final residual = 0.0024273, No Iterations 2
time step continuity errors : sum local = 1.07588, global = -0.123949, cumulative = 0.0229008
smoothSolver:  Solving for omega, Initial residual = 0.00174651, Final residual = 0.000129106, No Iterations 3
smoothSolver:  Solving for k, Initial residual = 0.0273682, Final residual = 0.00208125, No Iterations 3
ExecutionTime = 20.43 s  ClockTime = 21 s

Time = 21

smoothSolver:  Solving for Ux, Initial residual = 0.0161719, Final residual = 0.000944179, No Iterations 4
smoothSolver:  Solving for Uy, Initial residual = 0.0190032, Final residual = 0.00099111, No Iterations 4
smoothSolver:  Solving for Uz, Initial residual = 0.0212292, Final residual = 0.00126334, No Iterations 4
GAMG:  Solving for p, Initial residual = 0.0296664, Final residual = 0.0024584, No Iterations 2
time step continuity errors : sum local = 1.06781, global = -0.269424, cumulative = -0.246523
smoothSolver:  Solving for omega, Initial residual = 0.00159002, Final residual = 0.000117448, No Iterations 3
smoothSolver:  Solving for k, Initial residual = 0.0273197, Final residual = 0.00204285, No Iterations 3
ExecutionTime = 21.32 s  ClockTime = 22 s

Time = 22

smoothSolver:  Solving for Ux, Initial residual = 0.0167013, Final residual = 0.000964355, No Iterations 4
smoothSolver:  Solving for Uy, Initial residual = 0.0192149, Final residual = 0.00101247, No Iterations 4
smoothSolver:  Solving for Uz, Initial residual = 0.0227796, Final residual = 0.00137315, No Iterations 4
GAMG:  Solving for p, Initial residual = 0.0304098, Final residual = 0.00262596, No Iterations 2
time step continuity errors : sum local = 1.11726, global = -0.310763, cumulative = -0.557286
smoothSolver:  Solving for omega, Initial residual = 0.00143628, Final residual = 0.000105587, No Iterations 3
smoothSolver:  Solving for k, Initial residual = 0.027118, Final residual = 0.00198408, No Iterations 3
ExecutionTime = 22.21 s  ClockTime = 22 s

Time = 23

smoothSolver:  Solving for Ux, Initial residual = 0.0172605, Final residual = 0.000996943, No Iterations 4
smoothSolver:  Solving for Uy, Initial residual = 0.0196905, Final residual = 0.00105442, No Iterations 4
smoothSolver:  Solving for Uz, Initial residual = 0.0242932, Final residual = 0.00147243, No Iterations 4
GAMG:  Solving for p, Initial residual = 0.0320526, Final residual = 0.00302316, No Iterations 2
time step continuity errors : sum local = 1.25327, global = -0.235145, cumulative = -0.792431
smoothSolver:  Solving for omega, Initial residual = 0.00130963, Final residual = 9.64736e-05, No Iterations 3
smoothSolver:  Solving for k, Initial residual = 0.0268791, Final residual = 0.00193291, No Iterations 3
ExecutionTime = 23.1 s  ClockTime = 23 s

Time = 24

smoothSolver:  Solving for Ux, Initial residual = 0.0181643, Final residual = 0.0010601, No Iterations 4
smoothSolver:  Solving for Uy, Initial residual = 0.0201099, Final residual = 0.00109744, No Iterations 4
smoothSolver:  Solving for Uz, Initial residual = 0.0251953, Final residual = 0.00152153, No Iterations 4
GAMG:  Solving for p, Initial residual = 0.0348102, Final residual = 0.00346757, No Iterations 2
time step continuity errors : sum local = 1.37784, global = -0.147619, cumulative = -0.940051
smoothSolver:  Solving for omega, Initial residual = 0.00122825, Final residual = 9.05187e-05, No Iterations 3
smoothSolver:  Solving for k, Initial residual = 0.0270078, Final residual = 0.0019434, No Iterations 3
ExecutionTime = 23.98 s  ClockTime = 24 s

Time = 25

smoothSolver:  Solving for Ux, Initial residual = 0.0195516, Final residual = 0.00116604, No Iterations 4
smoothSolver:  Solving for Uy, Initial residual = 0.0206521, Final residual = 0.00113779, No Iterations 4
smoothSolver:  Solving for Uz, Initial residual = 0.0251586, Final residual = 0.00150069, No Iterations 4
GAMG:  Solving for p, Initial residual = 0.0388705, Final residual = 0.00353883, No Iterations 2
time step continuity errors : sum local = 1.30383, global = -0.113248, cumulative = -1.0533
smoothSolver:  Solving for omega, Initial residual = 0.00117812, Final residual = 8.66013e-05, No Iterations 3
smoothSolver:  Solving for k, Initial residual = 0.0269829, Final residual = 0.00198095, No Iterations 3
ExecutionTime = 24.86 s  ClockTime = 25 s

Time = 26

smoothSolver:  Solving for Ux, Initial residual = 0.0209157, Final residual = 0.00126947, No Iterations 4
smoothSolver:  Solving for Uy, Initial residual = 0.0211441, Final residual = 0.00117195, No Iterations 4
smoothSolver:  Solving for Uz, Initial residual = 0.0244898, Final residual = 0.00145152, No Iterations 4
GAMG:  Solving for p, Initial residual = 0.043749, Final residual = 0.00311899, No Iterations 2
time step continuity errors : sum local = 1.06058, global = -0.074026, cumulative = -1.12732
smoothSolver:  Solving for omega, Initial residual = 0.00113206, Final residual = 8.40858e-05, No Iterations 3
smoothSolver:  Solving for k, Initial residual = 0.0275898, Final residual = 0.00205909, No Iterations 3
ExecutionTime = 25.74 s  ClockTime = 26 s

Time = 27

smoothSolver:  Solving for Ux, Initial residual = 0.0216477, Final residual = 0.00131911, No Iterations 4
smoothSolver:  Solving for Uy, Initial residual = 0.0214318, Final residual = 0.00118733, No Iterations 4
smoothSolver:  Solving for Uz, Initial residual = 0.0240332, Final residual = 0.0014395, No Iterations 4
GAMG:  Solving for p, Initial residual = 0.0469793, Final residual = 0.00272557, No Iterations 2
time step continuity errors : sum local = 0.891261, global = -0.0948093, cumulative = -1.22213
smoothSolver:  Solving for omega, Initial residual = 0.00106807, Final residual = 8.04937e-05, No Iterations 3
smoothSolver:  Solving for k, Initial residual = 0.0279596, Final residual = 0.0021599, No Iterations 3
ExecutionTime = 26.62 s  ClockTime = 27 s

Time = 28

smoothSolver:  Solving for Ux, Initial residual = 0.0218485, Final residual = 0.00132702, No Iterations 4
smoothSolver:  Solving for Uy, Initial residual = 0.0212485, Final residual = 0.00117397, No Iterations 4
smoothSolver:  Solving for Uz, Initial residual = 0.0240155, Final residual = 0.00145656, No Iterations 4
GAMG:  Solving for p, Initial residual = 0.048098, Final residual = 0.0028042, No Iterations 2
time step continuity errors : sum local = 0.926806, global = -0.154273, cumulative = -1.37641
smoothSolver:  Solving for omega, Initial residual = 0.00101298, Final residual = 7.68197e-05, No Iterations 3
smoothSolver:  Solving for k, Initial residual = 0.0284607, Final residual = 0.00225249, No Iterations 3
ExecutionTime = 27.51 s  ClockTime = 28 s

Time = 29

smoothSolver:  Solving for Ux, Initial residual = 0.0220612, Final residual = 0.00133367, No Iterations 4
smoothSolver:  Solving for Uy, Initial residual = 0.021036, Final residual = 0.00115921, No Iterations 4
smoothSolver:  Solving for Uz, Initial residual = 0.0242785, Final residual = 0.0014819, No Iterations 4
GAMG:  Solving for p, Initial residual = 0.0488262, Final residual = 0.00297946, No Iterations 2
time step continuity errors : sum local = 1.01128, global = -0.216518, cumulative = -1.59293
smoothSolver:  Solving for omega, Initial residual = 0.000974468, Final residual = 7.34341e-05, No Iterations 3
smoothSolver:  Solving for k, Initial residual = 0.0292658, Final residual = 0.0023439, No Iterations 3
ExecutionTime = 28.4 s  ClockTime = 29 s

Time = 30

smoothSolver:  Solving for Ux, Initial residual = 0.0224299, Final residual = 0.00135852, No Iterations 4
smoothSolver:  Solving for Uy, Initial residual = 0.0210924, Final residual = 0.00114665, No Iterations 4
smoothSolver:  Solving for Uz, Initial residual = 0.0248501, Final residual = 0.00151495, No Iterations 4
GAMG:  Solving for p, Initial residual = 0.0497589, Final residual = 0.00316449, No Iterations 2
time step continuity errors : sum local = 1.10362, global = -0.245828, cumulative = -1.83875
smoothSolver:  Solving for omega, Initial residual = 0.000936521, Final residual = 7.04553e-05, No Iterations 3
smoothSolver:  Solving for k, Initial residual = 0.0300311, Final residual = 0.00242007, No Iterations 3
ExecutionTime = 29.28 s  ClockTime = 30 s

Time = 31

smoothSolver:  Solving for Ux, Initial residual = 0.0230274, Final residual = 0.00140865, No Iterations 4
smoothSolver:  Solving for Uy, Initial residual = 0.021116, Final residual = 0.00114704, No Iterations 4
smoothSolver:  Solving for Uz, Initial residual = 0.0253771, Final residual = 0.00153638, No Iterations 4
GAMG:  Solving for p, Initial residual = 0.0512398, Final residual = 0.00346967, No Iterations 2
time step continuity errors : sum local = 1.21364, global = -0.227647, cumulative = -2.0664
smoothSolver:  Solving for omega, Initial residual = 0.000906837, Final residual = 6.71681e-05, No Iterations 3
smoothSolver:  Solving for k, Initial residual = 0.0303298, Final residual = 0.00245555, No Iterations 3
ExecutionTime = 30.17 s  ClockTime = 30 s

Time = 32

smoothSolver:  Solving for Ux, Initial residual = 0.0237684, Final residual = 0.00147503, No Iterations 4
smoothSolver:  Solving for Uy, Initial residual = 0.0213573, Final residual = 0.00116492, No Iterations 4
smoothSolver:  Solving for Uz, Initial residual = 0.0253889, Final residual = 0.00150872, No Iterations 4
GAMG:  Solving for p, Initial residual = 0.055533, Final residual = 0.00383075, No Iterations 2
time step continuity errors : sum local = 1.26768, global = -0.189502, cumulative = -2.2559
smoothSolver:  Solving for omega, Initial residual = 0.000880877, Final residual = 6.40316e-05, No Iterations 3
smoothSolver:  Solving for k, Initial residual = 0.0308309, Final residual = 0.00242255, No Iterations 3
ExecutionTime = 31.05 s  ClockTime = 31 s

Time = 33

smoothSolver:  Solving for Ux, Initial residual = 0.0245684, Final residual = 0.00153799, No Iterations 4
smoothSolver:  Solving for Uy, Initial residual = 0.0215979, Final residual = 0.00118675, No Iterations 4
smoothSolver:  Solving for Uz, Initial residual = 0.0247276, Final residual = 0.00142583, No Iterations 4
GAMG:  Solving for p, Initial residual = 0.0613199, Final residual = 0.00378473, No Iterations 2
time step continuity errors : sum local = 1.15454, global = -0.152143, cumulative = -2.40805
smoothSolver:  Solving for omega, Initial residual = 0.000846158, Final residual = 6.16742e-05, No Iterations 3
smoothSolver:  Solving for k, Initial residual = 0.0306838, Final residual = 0.00232013, No Iterations 3
ExecutionTime = 31.93 s  ClockTime = 32 s

Time = 34

smoothSolver:  Solving for Ux, Initial residual = 0.0251628, Final residual = 0.0015736, No Iterations 4
smoothSolver:  Solving for Uy, Initial residual = 0.0219248, Final residual = 0.00120598, No Iterations 4
smoothSolver:  Solving for Uz, Initial residual = 0.02363, Final residual = 0.00132718, No Iterations 4
GAMG:  Solving for p, Initial residual = 0.0678385, Final residual = 0.00339946, No Iterations 2
time step continuity errors : sum local = 0.953275, global = -0.0955544, cumulative = -2.5036
smoothSolver:  Solving for omega, Initial residual = 0.000818739, Final residual = 6.00275e-05, No Iterations 3
smoothSolver:  Solving for k, Initial residual = 0.0309224, Final residual = 0.0022972, No Iterations 3
ExecutionTime = 32.82 s  ClockTime = 33 s

Time = 35

smoothSolver:  Solving for Ux, Initial residual = 0.0253059, Final residual = 0.00156556, No Iterations 4
smoothSolver:  Solving for Uy, Initial residual = 0.0219874, Final residual = 0.00119587, No Iterations 4
smoothSolver:  Solving for Uz, Initial residual = 0.0226216, Final residual = 0.00124754, No Iterations 4
GAMG:  Solving for p, Initial residual = 0.0706775, Final residual = 0.00339388, No Iterations 2
time step continuity errors : sum local = 0.916774, global = -0.0310472, cumulative = -2.53465
smoothSolver:  Solving for omega, Initial residual = 0.000793752, Final residual = 5.89961e-05, No Iterations 3
smoothSolver:  Solving for k, Initial residual = 0.031468, Final residual = 0.00238041, No Iterations 3
ExecutionTime = 33.7 s  ClockTime = 34 s

Time = 36

smoothSolver:  Solving for Ux, Initial residual = 0.0251776, Final residual = 0.00154545, No Iterations 4
smoothSolver:  Solving for Uy, Initial residual = 0.0214922, Final residual = 0.00118014, No Iterations 4
smoothSolver:  Solving for Uz, Initial residual = 0.021951, Final residual = 0.00120665, No Iterations 4
GAMG:  Solving for p, Initial residual = 0.0734265, Final residual = 0.00367221, No Iterations 2
time step continuity errors : sum local = 0.956759, global = -0.0552587, cumulative = -2.58991
smoothSolver:  Solving for omega, Initial residual = 0.000780707, Final residual = 5.82241e-05, No Iterations 3
smoothSolver:  Solving for k, Initial residual = 0.0323193, Final residual = 0.00247793, No Iterations 3
ExecutionTime = 34.59 s  ClockTime = 35 s

Time = 37

smoothSolver:  Solving for Ux, Initial residual = 0.0249703, Final residual = 0.00153247, No Iterations 4
smoothSolver:  Solving for Uy, Initial residual = 0.0210284, Final residual = 0.00115923, No Iterations 4
smoothSolver:  Solving for Uz, Initial residual = 0.0215917, Final residual = 0.00119882, No Iterations 4
GAMG:  Solving for p, Initial residual = 0.0762789, Final residual = 0.00387942, No Iterations 2
time step continuity errors : sum local = 0.945457, global = -0.139056, cumulative = -2.72896
smoothSolver:  Solving for omega, Initial residual = 0.000766332, Final residual = 5.77489e-05, No Iterations 3
smoothSolver:  Solving for k, Initial residual = 0.0330792, Final residual = 0.00260439, No Iterations 3
ExecutionTime = 35.48 s  ClockTime = 36 s

Time = 38

smoothSolver:  Solving for Ux, Initial residual = 0.024838, Final residual = 0.00152161, No Iterations 4
smoothSolver:  Solving for Uy, Initial residual = 0.0205378, Final residual = 0.00112585, No Iterations 4
smoothSolver:  Solving for Uz, Initial residual = 0.0214507, Final residual = 0.00120813, No Iterations 4
GAMG:  Solving for p, Initial residual = 0.0792796, Final residual = 0.00387958, No Iterations 2
time step continuity errors : sum local = 0.891238, global = -0.195314, cumulative = -2.92428
smoothSolver:  Solving for omega, Initial residual = 0.000754555, Final residual = 5.79999e-05, No Iterations 3
smoothSolver:  Solving for k, Initial residual = 0.0341273, Final residual = 0.00280194, No Iterations 3
ExecutionTime = 36.36 s  ClockTime = 37 s

Time = 39

smoothSolver:  Solving for Ux, Initial residual = 0.0246162, Final residual = 0.00151126, No Iterations 4
smoothSolver:  Solving for Uy, Initial residual = 0.0198261, Final residual = 0.00108772, No Iterations 4
smoothSolver:  Solving for Uz, Initial residual = 0.0213427, Final residual = 0.00121357, No Iterations 4
GAMG:  Solving for p, Initial residual = 0.0849773, Final residual = 0.00389381, No Iterations 2
time step continuity errors : sum local = 0.844276, global = -0.194931, cumulative = -3.11921
smoothSolver:  Solving for omega, Initial residual = 0.000746287, Final residual = 5.76482e-05, No Iterations 3
smoothSolver:  Solving for k, Initial residual = 0.0353078, Final residual = 0.00296532, No Iterations 3
ExecutionTime = 37.24 s  ClockTime = 38 s

Time = 40

smoothSolver:  Solving for Ux, Initial residual = 0.0243854, Final residual = 0.00149414, No Iterations 4
smoothSolver:  Solving for Uy, Initial residual = 0.0191763, Final residual = 0.00104148, No Iterations 4
smoothSolver:  Solving for Uz, Initial residual = 0.0208763, Final residual = 0.00118914, No Iterations 4
GAMG:  Solving for p, Initial residual = 0.0924997, Final residual = 0.00413475, No Iterations 2
time step continuity errors : sum local = 0.846278, global = -0.181631, cumulative = -3.30084
smoothSolver:  Solving for omega, Initial residual = 0.000738148, Final residual = 5.72908e-05, No Iterations 3
smoothSolver:  Solving for k, Initial residual = 0.0366084, Final residual = 0.00316787, No Iterations 3
ExecutionTime = 38.12 s  ClockTime = 38 s

Time = 41

smoothSolver:  Solving for Ux, Initial residual = 0.0240854, Final residual = 0.0014614, No Iterations 4
smoothSolver:  Solving for Uy, Initial residual = 0.0187182, Final residual = 0.000993079, No Iterations 4
smoothSolver:  Solving for Uz, Initial residual = 0.0200391, Final residual = 0.00113656, No Iterations 4
GAMG:  Solving for p, Initial residual = 0.098537, Final residual = 0.00462187, No Iterations 2
time step continuity errors : sum local = 0.907639, global = -0.163546, cumulative = -3.46439
smoothSolver:  Solving for omega, Initial residual = 0.000727908, Final residual = 5.66445e-05, No Iterations 3
smoothSolver:  Solving for k, Initial residual = 0.037853, Final residual = 0.00335286, No Iterations 3
ExecutionTime = 39.01 s  ClockTime = 39 s

Time = 42

smoothSolver:  Solving for Ux, Initial residual = 0.0237199, Final residual = 0.00142873, No Iterations 4
smoothSolver:  Solving for Uy, Initial residual = 0.0183118, Final residual = 0.000957737, No Iterations 4
smoothSolver:  Solving for Uz, Initial residual = 0.0192234, Final residual = 0.00107596, No Iterations 4
GAMG:  Solving for p, Initial residual = 0.104327, Final residual = 0.00498878, No Iterations 2
time step continuity errors : sum local = 0.961041, global = -0.143258, cumulative = -3.60764
smoothSolver:  Solving for omega, Initial residual = 0.000725396, Final residual = 5.60926e-05, No Iterations 3
smoothSolver:  Solving for k, Initial residual = 0.0397295, Final residual = 0.00354622, No Iterations 3
ExecutionTime = 39.88 s  ClockTime = 40 s

Time = 43

smoothSolver:  Solving for Ux, Initial residual = 0.0232507, Final residual = 0.00139707, No Iterations 4
smoothSolver:  Solving for Uy, Initial residual = 0.01797, Final residual = 0.000936312, No Iterations 4
smoothSolver:  Solving for Uz, Initial residual = 0.0184876, Final residual = 0.0010288, No Iterations 4
GAMG:  Solving for p, Initial residual = 0.107518, Final residual = 0.00500567, No Iterations 2
time step continuity errors : sum local = 0.970567, global = -0.138804, cumulative = -3.74645
smoothSolver:  Solving for omega, Initial residual = 0.000718164, Final residual = 5.57343e-05, No Iterations 3
smoothSolver:  Solving for k, Initial residual = 0.0416787, Final residual = 0.00370781, No Iterations 3
ExecutionTime = 40.78 s  ClockTime = 41 s

Time = 44

smoothSolver:  Solving for Ux, Initial residual = 0.0227711, Final residual = 0.00135806, No Iterations 4
smoothSolver:  Solving for Uy, Initial residual = 0.0174748, Final residual = 0.000916619, No Iterations 4
smoothSolver:  Solving for Uz, Initial residual = 0.017921, Final residual = 0.000999671, No Iterations 4
GAMG:  Solving for p, Initial residual = 0.109596, Final residual = 0.00489891, No Iterations 2
time step continuity errors : sum local = 0.966798, global = -0.154308, cumulative = -3.90076
smoothSolver:  Solving for omega, Initial residual = 0.000716546, Final residual = 5.54972e-05, No Iterations 3
smoothSolver:  Solving for k, Initial residual = 0.0433219, Final residual = 0.00381705, No Iterations 3
ExecutionTime = 41.66 s  ClockTime = 42 s

Time = 45

smoothSolver:  Solving for Ux, Initial residual = 0.0222666, Final residual = 0.00131929, No Iterations 4
smoothSolver:  Solving for Uy, Initial residual = 0.0170192, Final residual = 0.000888891, No Iterations 4
smoothSolver:  Solving for Uz, Initial residual = 0.0174675, Final residual = 0.000979526, No Iterations 4
GAMG:  Solving for p, Initial residual = 0.112379, Final residual = 0.00473982, No Iterations 2
time step continuity errors : sum local = 0.959593, global = -0.155203, cumulative = -4.05596
smoothSolver:  Solving for omega, Initial residual = 0.000717996, Final residual = 5.48235e-05, No Iterations 3
smoothSolver:  Solving for k, Initial residual = 0.0446211, Final residual = 0.00383866, No Iterations 3
ExecutionTime = 42.54 s  ClockTime = 43 s

Time = 46

smoothSolver:  Solving for Ux, Initial residual = 0.0217755, Final residual = 0.00128088, No Iterations 4
smoothSolver:  Solving for Uy, Initial residual = 0.0164599, Final residual = 0.000861592, No Iterations 4
smoothSolver:  Solving for Uz, Initial residual = 0.0171576, Final residual = 0.000952097, No Iterations 4
GAMG:  Solving for p, Initial residual = 0.112946, Final residual = 0.00462227, No Iterations 2
time step continuity errors : sum local = 0.972169, global = -0.135395, cumulative = -4.19135
smoothSolver:  Solving for omega, Initial residual = 0.000720955, Final residual = 5.38519e-05, No Iterations 3
smoothSolver:  Solving for k, Initial residual = 0.0453827, Final residual = 0.00391009, No Iterations 3
ExecutionTime = 43.42 s  ClockTime = 44 s

Time = 47

smoothSolver:  Solving for Ux, Initial residual = 0.0212351, Final residual = 0.00123527, No Iterations 4
smoothSolver:  Solving for Uy, Initial residual = 0.0159376, Final residual = 0.000838046, No Iterations 4
smoothSolver:  Solving for Uz, Initial residual = 0.0168895, Final residual = 0.000919214, No Iterations 4
GAMG:  Solving for p, Initial residual = 0.1108, Final residual = 0.0045858, No Iterations 2
time step continuity errors : sum local = 0.98605, global = -0.106256, cumulative = -4.29761
smoothSolver:  Solving for omega, Initial residual = 0.000723334, Final residual = 5.32515e-05, No Iterations 3
smoothSolver:  Solving for k, Initial residual = 0.0457687, Final residual = 0.00393554, No Iterations 3
ExecutionTime = 44.31 s  ClockTime = 45 s

Time = 48

smoothSolver:  Solving for Ux, Initial residual = 0.020742, Final residual = 0.00117988, No Iterations 4
smoothSolver:  Solving for Uy, Initial residual = 0.0154556, Final residual = 0.00081305, No Iterations 4
smoothSolver:  Solving for Uz, Initial residual = 0.0165883, Final residual = 0.000885018, No Iterations 4
GAMG:  Solving for p, Initial residual = 0.107148, Final residual = 0.00446112, No Iterations 2
time step continuity errors : sum local = 0.974866, global = -0.0720007, cumulative = -4.36961
smoothSolver:  Solving for omega, Initial residual = 0.00072034, Final residual = 5.19238e-05, No Iterations 3
smoothSolver:  Solving for k, Initial residual = 0.0459733, Final residual = 0.00389072, No Iterations 3
ExecutionTime = 45.19 s  ClockTime = 45 s

Time = 49

smoothSolver:  Solving for Ux, Initial residual = 0.0201109, Final residual = 0.00111298, No Iterations 4
smoothSolver:  Solving for Uy, Initial residual = 0.0150454, Final residual = 0.000770337, No Iterations 4
smoothSolver:  Solving for Uz, Initial residual = 0.0161523, Final residual = 0.000844567, No Iterations 4
GAMG:  Solving for p, Initial residual = 0.10211, Final residual = 0.0040916, No Iterations 2
time step continuity errors : sum local = 0.918823, global = -0.0460176, cumulative = -4.41563
smoothSolver:  Solving for omega, Initial residual = 0.000706243, Final residual = 5.01839e-05, No Iterations 3
smoothSolver:  Solving for k, Initial residual = 0.045413, Final residual = 0.00389224, No Iterations 3
ExecutionTime = 46.08 s  ClockTime = 46 s

Time = 50

smoothSolver:  Solving for Ux, Initial residual = 0.0194179, Final residual = 0.0010457, No Iterations 4
smoothSolver:  Solving for Uy, Initial residual = 0.0146052, Final residual = 0.00071963, No Iterations 4
smoothSolver:  Solving for Uz, Initial residual = 0.0156152, Final residual = 0.000805554, No Iterations 4
GAMG:  Solving for p, Initial residual = 0.097075, Final residual = 0.00366891, No Iterations 2
time step continuity errors : sum local = 0.850362, global = -0.028212, cumulative = -4.44384
smoothSolver:  Solving for omega, Initial residual = 0.000689307, Final residual = 4.77876e-05, No Iterations 3
smoothSolver:  Solving for k, Initial residual = 0.0446828, Final residual = 0.00373853, No Iterations 3
ExecutionTime = 46.97 s  ClockTime = 47 s

Time = 51

smoothSolver:  Solving for Ux, Initial residual = 0.0186519, Final residual = 0.000981852, No Iterations 4
smoothSolver:  Solving for Uy, Initial residual = 0.0141799, Final residual = 0.000691298, No Iterations 4
smoothSolver:  Solving for Uz, Initial residual = 0.0150819, Final residual = 0.000764612, No Iterations 4
GAMG:  Solving for p, Initial residual = 0.0920489, Final residual = 0.00329485, No Iterations 2
time step continuity errors : sum local = 0.792421, global = -0.00137067, cumulative = -4.44521
smoothSolver:  Solving for omega, Initial residual = 0.000668602, Final residual = 4.57774e-05, No Iterations 3
smoothSolver:  Solving for k, Initial residual = 0.0436488, Final residual = 0.0035361, No Iterations 3
ExecutionTime = 47.84 s  ClockTime = 48 s

Time = 52

smoothSolver:  Solving for Ux, Initial residual = 0.0178833, Final residual = 0.000922094, No Iterations 4
smoothSolver:  Solving for Uy, Initial residual = 0.0137232, Final residual = 0.000678895, No Iterations 4
smoothSolver:  Solving for Uz, Initial residual = 0.0144822, Final residual = 0.000718951, No Iterations 4
GAMG:  Solving for p, Initial residual = 0.0864656, Final residual = 0.0029909, No Iterations 2
time step continuity errors : sum local = 0.748804, global = 0.0193084, cumulative = -4.4259
smoothSolver:  Solving for omega, Initial residual = 0.000645017, Final residual = 4.33352e-05, No Iterations 3
smoothSolver:  Solving for k, Initial residual = 0.0419707, Final residual = 0.00326285, No Iterations 3
ExecutionTime = 48.72 s  ClockTime = 49 s

Time = 53

smoothSolver:  Solving for Ux, Initial residual = 0.0170571, Final residual = 0.00085776, No Iterations 4
smoothSolver:  Solving for Uy, Initial residual = 0.0131211, Final residual = 0.000658516, No Iterations 4
smoothSolver:  Solving for Uz, Initial residual = 0.0138631, Final residual = 0.000672013, No Iterations 4
GAMG:  Solving for p, Initial residual = 0.0820348, Final residual = 0.00274787, No Iterations 2
time step continuity errors : sum local = 0.718614, global = 0.0373527, cumulative = -4.38855
smoothSolver:  Solving for omega, Initial residual = 0.000618375, Final residual = 4.1986e-05, No Iterations 3
smoothSolver:  Solving for k, Initial residual = 0.0395144, Final residual = 0.00307045, No Iterations 3
ExecutionTime = 49.61 s  ClockTime = 50 s

Time = 54

smoothSolver:  Solving for Ux, Initial residual = 0.0162254, Final residual = 0.000803748, No Iterations 4
smoothSolver:  Solving for Uy, Initial residual = 0.0125266, Final residual = 0.000631097, No Iterations 4
smoothSolver:  Solving for Uz, Initial residual = 0.0131878, Final residual = 0.000631548, No Iterations 4
GAMG:  Solving for p, Initial residual = 0.0771475, Final residual = 0.00249139, No Iterations 2
time step continuity errors : sum local = 0.67419, global = 0.034883, cumulative = -4.35367
smoothSolver:  Solving for omega, Initial residual = 0.000592151, Final residual = 4.05441e-05, No Iterations 3
smoothSolver:  Solving for k, Initial residual = 0.0369906, Final residual = 0.00286303, No Iterations 3
ExecutionTime = 50.49 s  ClockTime = 51 s

Time = 55

smoothSolver:  Solving for Ux, Initial residual = 0.0152905, Final residual = 0.000752933, No Iterations 4
smoothSolver:  Solving for Uy, Initial residual = 0.0118686, Final residual = 0.000600032, No Iterations 4
smoothSolver:  Solving for Uz, Initial residual = 0.0124255, Final residual = 0.000588762, No Iterations 4
GAMG:  Solving for p, Initial residual = 0.0719486, Final residual = 0.00223991, No Iterations 2
time step continuity errors : sum local = 0.614257, global = 0.0207172, cumulative = -4.33295
smoothSolver:  Solving for omega, Initial residual = 0.000563464, Final residual = 3.81584e-05, No Iterations 3
smoothSolver:  Solving for k, Initial residual = 0.0344556, Final residual = 0.00261913, No Iterations 3
ExecutionTime = 51.38 s  ClockTime = 52 s

Time = 56

smoothSolver:  Solving for Ux, Initial residual = 0.0144235, Final residual = 0.000699454, No Iterations 4
smoothSolver:  Solving for Uy, Initial residual = 0.011179, Final residual = 0.000562878, No Iterations 4
smoothSolver:  Solving for Uz, Initial residual = 0.0115719, Final residual = 0.000523032, No Iterations 4
GAMG:  Solving for p, Initial residual = 0.066365, Final residual = 0.00204425, No Iterations 2
time step continuity errors : sum local = 0.567073, global = 0.0138421, cumulative = -4.31911
smoothSolver:  Solving for omega, Initial residual = 0.000534157, Final residual = 3.57894e-05, No Iterations 3
smoothSolver:  Solving for k, Initial residual = 0.0319661, Final residual = 0.00237119, No Iterations 3
ExecutionTime = 52.27 s  ClockTime = 53 s

Time = 57

smoothSolver:  Solving for Ux, Initial residual = 0.0135657, Final residual = 0.000642575, No Iterations 4
smoothSolver:  Solving for Uy, Initial residual = 0.0104641, Final residual = 0.0005187, No Iterations 4
smoothSolver:  Solving for Uz, Initial residual = 0.0107267, Final residual = 0.001031, No Iterations 3
GAMG:  Solving for p, Initial residual = 0.0607471, Final residual = 0.00192092, No Iterations 2
time step continuity errors : sum local = 0.544014, global = 0.0242858, cumulative = -4.29482
smoothSolver:  Solving for omega, Initial residual = 0.000496613, Final residual = 3.29518e-05, No Iterations 3
smoothSolver:  Solving for k, Initial residual = 0.0292919, Final residual = 0.00210418, No Iterations 3
ExecutionTime = 53.14 s  ClockTime = 53 s

Time = 58

smoothSolver:  Solving for Ux, Initial residual = 0.0126499, Final residual = 0.000581184, No Iterations 4
smoothSolver:  Solving for Uy, Initial residual = 0.00975805, Final residual = 0.000475562, No Iterations 4
smoothSolver:  Solving for Uz, Initial residual = 0.00997776, Final residual = 0.000934103, No Iterations 3
GAMG:  Solving for p, Initial residual = 0.0552024, Final residual = 0.00184526, No Iterations 2
time step continuity errors : sum local = 0.536855, global = 0.0502255, cumulative = -4.2446
smoothSolver:  Solving for omega, Initial residual = 0.00046092, Final residual = 3.06737e-05, No Iterations 3
smoothSolver:  Solving for k, Initial residual = 0.0267333, Final residual = 0.00191239, No Iterations 3
ExecutionTime = 54.02 s  ClockTime = 54 s

Time = 59

smoothSolver:  Solving for Ux, Initial residual = 0.0116676, Final residual = 0.00114744, No Iterations 3
smoothSolver:  Solving for Uy, Initial residual = 0.00905433, Final residual = 0.000432886, No Iterations 4
smoothSolver:  Solving for Uz, Initial residual = 0.00930915, Final residual = 0.000869301, No Iterations 3
GAMG:  Solving for p, Initial residual = 0.0502661, Final residual = 0.00175757, No Iterations 2
time step continuity errors : sum local = 0.528804, global = 0.087733, cumulative = -4.15686
smoothSolver:  Solving for omega, Initial residual = 0.000426143, Final residual = 2.85224e-05, No Iterations 3
smoothSolver:  Solving for k, Initial residual = 0.0243923, Final residual = 0.00173315, No Iterations 3
ExecutionTime = 54.89 s  ClockTime = 55 s

Time = 60

smoothSolver:  Solving for Ux, Initial residual = 0.0107512, Final residual = 0.00105237, No Iterations 3
smoothSolver:  Solving for Uy, Initial residual = 0.00835461, Final residual = 0.000389287, No Iterations 4
smoothSolver:  Solving for Uz, Initial residual = 0.00855265, Final residual = 0.000796479, No Iterations 3
GAMG:  Solving for p, Initial residual = 0.0462535, Final residual = 0.00160425, No Iterations 2
time step continuity errors : sum local = 0.502752, global = 0.129131, cumulative = -4.02773
smoothSolver:  Solving for omega, Initial residual = 0.000395934, Final residual = 2.6607e-05, No Iterations 3
smoothSolver:  Solving for k, Initial residual = 0.0222827, Final residual = 0.00159009, No Iterations 3
ExecutionTime = 55.76 s  ClockTime = 56 s

Time = 61

smoothSolver:  Solving for Ux, Initial residual = 0.00990648, Final residual = 0.000946451, No Iterations 3
smoothSolver:  Solving for Uy, Initial residual = 0.00776936, Final residual = 0.000775294, No Iterations 3
smoothSolver:  Solving for Uz, Initial residual = 0.00784251, Final residual = 0.000728505, No Iterations 3
GAMG:  Solving for p, Initial residual = 0.0434396, Final residual = 0.00141659, No Iterations 2
time step continuity errors : sum local = 0.464426, global = 0.161927, cumulative = -3.86581
smoothSolver:  Solving for omega, Initial residual = 0.000370676, Final residual = 2.48817e-05, No Iterations 3
smoothSolver:  Solving for k, Initial residual = 0.0206868, Final residual = 0.00149971, No Iterations 3
ExecutionTime = 56.63 s  ClockTime = 57 s

Time = 62

smoothSolver:  Solving for Ux, Initial residual = 0.0090606, Final residual = 0.000848845, No Iterations 3
smoothSolver:  Solving for Uy, Initial residual = 0.00732038, Final residual = 0.000721513, No Iterations 3
smoothSolver:  Solving for Uz, Initial residual = 0.00712634, Final residual = 0.000667384, No Iterations 3
GAMG:  Solving for p, Initial residual = 0.0404431, Final residual = 0.00126833, No Iterations 2
time step continuity errors : sum local = 0.434684, global = 0.169428, cumulative = -3.69638
smoothSolver:  Solving for omega, Initial residual = 0.000347052, Final residual = 2.3267e-05, No Iterations 3
smoothSolver:  Solving for k, Initial residual = 0.0193635, Final residual = 0.00141842, No Iterations 3
ExecutionTime = 57.49 s  ClockTime = 58 s

Time = 63

smoothSolver:  Solving for Ux, Initial residual = 0.00826801, Final residual = 0.000759983, No Iterations 3
smoothSolver:  Solving for Uy, Initial residual = 0.00691359, Final residual = 0.00067868, No Iterations 3
smoothSolver:  Solving for Uz, Initial residual = 0.00652442, Final residual = 0.000607315, No Iterations 3
GAMG:  Solving for p, Initial residual = 0.0369093, Final residual = 0.00118174, No Iterations 2
time step continuity errors : sum local = 0.420567, global = 0.167995, cumulative = -3.52838
smoothSolver:  Solving for omega, Initial residual = 0.000323963, Final residual = 2.15678e-05, No Iterations 3
smoothSolver:  Solving for k, Initial residual = 0.0181109, Final residual = 0.0013171, No Iterations 3
ExecutionTime = 58.36 s  ClockTime = 59 s

Time = 64

smoothSolver:  Solving for Ux, Initial residual = 0.00747834, Final residual = 0.000684065, No Iterations 3
smoothSolver:  Solving for Uy, Initial residual = 0.00646172, Final residual = 0.000618486, No Iterations 3
smoothSolver:  Solving for Uz, Initial residual = 0.0059738, Final residual = 0.000547972, No Iterations 3
GAMG:  Solving for p, Initial residual = 0.0327908, Final residual = 0.00109199, No Iterations 2
time step continuity errors : sum local = 0.401021, global = 0.162795, cumulative = -3.36559
smoothSolver:  Solving for omega, Initial residual = 0.000300278, Final residual = 1.95127e-05, No Iterations 3
smoothSolver:  Solving for k, Initial residual = 0.0168731, Final residual = 0.00118506, No Iterations 3
ExecutionTime = 59.22 s  ClockTime = 60 s

Time = 65

smoothSolver:  Solving for Ux, Initial residual = 0.00676786, Final residual = 0.000612686, No Iterations 3
smoothSolver:  Solving for Uy, Initial residual = 0.00598799, Final residual = 0.000553616, No Iterations 3
smoothSolver:  Solving for Uz, Initial residual = 0.00549871, Final residual = 0.000500589, No Iterations 3
GAMG:  Solving for p, Initial residual = 0.0289877, Final residual = 0.000981235, No Iterations 2
time step continuity errors : sum local = 0.369664, global = 0.142656, cumulative = -3.22293
smoothSolver:  Solving for omega, Initial residual = 0.000274324, Final residual = 1.74003e-05, No Iterations 3
smoothSolver:  Solving for k, Initial residual = 0.0154928, Final residual = 0.00105594, No Iterations 3
ExecutionTime = 60.08 s  ClockTime = 60 s

Time = 66

smoothSolver:  Solving for Ux, Initial residual = 0.00614252, Final residual = 0.000557429, No Iterations 3
smoothSolver:  Solving for Uy, Initial residual = 0.00549035, Final residual = 0.000493482, No Iterations 3
smoothSolver:  Solving for Uz, Initial residual = 0.00501732, Final residual = 0.000464562, No Iterations 3
GAMG:  Solving for p, Initial residual = 0.0265232, Final residual = 0.000859493, No Iterations 2
time step continuity errors : sum local = 0.328535, global = 0.105409, cumulative = -3.11752
smoothSolver:  Solving for omega, Initial residual = 0.000252024, Final residual = 1.56219e-05, No Iterations 3
smoothSolver:  Solving for k, Initial residual = 0.0144061, Final residual = 0.000941777, No Iterations 3
ExecutionTime = 60.94 s  ClockTime = 61 s

Time = 67

smoothSolver:  Solving for Ux, Initial residual = 0.00560367, Final residual = 0.000512118, No Iterations 3
smoothSolver:  Solving for Uy, Initial residual = 0.0050449, Final residual = 0.000448727, No Iterations 3
smoothSolver:  Solving for Uz, Initial residual = 0.00459928, Final residual = 0.00042661, No Iterations 3
GAMG:  Solving for p, Initial residual = 0.0238653, Final residual = 0.000771249, No Iterations 2
time step continuity errors : sum local = 0.296275, global = 0.0595481, cumulative = -3.05798
smoothSolver:  Solving for omega, Initial residual = 0.00022809, Final residual = 1.38771e-05, No Iterations 3
smoothSolver:  Solving for k, Initial residual = 0.0131983, Final residual = 0.000842351, No Iterations 3
ExecutionTime = 61.81 s  ClockTime = 62 s

Time = 68

smoothSolver:  Solving for Ux, Initial residual = 0.005142, Final residual = 0.000465487, No Iterations 3
smoothSolver:  Solving for Uy, Initial residual = 0.00465972, Final residual = 0.000404626, No Iterations 3
smoothSolver:  Solving for Uz, Initial residual = 0.00421413, Final residual = 0.000386409, No Iterations 3
GAMG:  Solving for p, Initial residual = 0.0215915, Final residual = 0.000713649, No Iterations 2
time step continuity errors : sum local = 0.274582, global = 0.0117556, cumulative = -3.04622
smoothSolver:  Solving for omega, Initial residual = 0.00020877, Final residual = 1.26171e-05, No Iterations 3
smoothSolver:  Solving for k, Initial residual = 0.0120772, Final residual = 0.000759278, No Iterations 3
ExecutionTime = 62.67 s  ClockTime = 63 s

Time = 69

smoothSolver:  Solving for Ux, Initial residual = 0.00466171, Final residual = 0.000420349, No Iterations 3
smoothSolver:  Solving for Uy, Initial residual = 0.00429685, Final residual = 0.000365441, No Iterations 3
smoothSolver:  Solving for Uz, Initial residual = 0.00386859, Final residual = 0.000348752, No Iterations 3
GAMG:  Solving for p, Initial residual = 0.0194343, Final residual = 0.000650065, No Iterations 2
time step continuity errors : sum local = 0.251044, global = -0.0237458, cumulative = -3.06997
smoothSolver:  Solving for omega, Initial residual = 0.000193529, Final residual = 1.17027e-05, No Iterations 3
smoothSolver:  Solving for k, Initial residual = 0.0112055, Final residual = 0.000685273, No Iterations 3
ExecutionTime = 63.54 s  ClockTime = 64 s

Time = 70

smoothSolver:  Solving for Ux, Initial residual = 0.00428893, Final residual = 0.000382131, No Iterations 3
smoothSolver:  Solving for Uy, Initial residual = 0.00396058, Final residual = 0.000332404, No Iterations 3
smoothSolver:  Solving for Uz, Initial residual = 0.00355301, Final residual = 0.000321189, No Iterations 3
GAMG:  Solving for p, Initial residual = 0.0175601, Final residual = 0.000588267, No Iterations 2
time step continuity errors : sum local = 0.228082, global = -0.0375612, cumulative = -3.10753
smoothSolver:  Solving for omega, Initial residual = 0.000176464, Final residual = 1.10749e-05, No Iterations 3
smoothSolver:  Solving for k, Initial residual = 0.0101698, Final residual = 0.000641063, No Iterations 3
ExecutionTime = 64.4 s  ClockTime = 65 s

Time = 71

smoothSolver:  Solving for Ux, Initial residual = 0.00391645, Final residual = 0.000351361, No Iterations 3
smoothSolver:  Solving for Uy, Initial residual = 0.00362605, Final residual = 0.000302453, No Iterations 3
smoothSolver:  Solving for Uz, Initial residual = 0.00326467, Final residual = 0.000297538, No Iterations 3
GAMG:  Solving for p, Initial residual = 0.0162502, Final residual = 0.000544245, No Iterations 2
time step continuity errors : sum local = 0.211945, global = -0.031371, cumulative = -3.1389
smoothSolver:  Solving for omega, Initial residual = 0.000165682, Final residual = 1.05229e-05, No Iterations 3
smoothSolver:  Solving for k, Initial residual = 0.00963878, Final residual = 0.000609602, No Iterations 3
ExecutionTime = 65.27 s  ClockTime = 66 s

Time = 72

smoothSolver:  Solving for Ux, Initial residual = 0.00362638, Final residual = 0.000331629, No Iterations 3
smoothSolver:  Solving for Uy, Initial residual = 0.00332542, Final residual = 0.000278, No Iterations 3
smoothSolver:  Solving for Uz, Initial residual = 0.00303787, Final residual = 0.000280223, No Iterations 3
GAMG:  Solving for p, Initial residual = 0.0152712, Final residual = 0.000528036, No Iterations 2
time step continuity errors : sum local = 0.206908, global = -0.0106374, cumulative = -3.14954
smoothSolver:  Solving for omega, Initial residual = 0.000151509, Final residual = 9.85079e-06, No Iterations 3
smoothSolver:  Solving for k, Initial residual = 0.00886208, Final residual = 0.000566247, No Iterations 3
ExecutionTime = 66.13 s  ClockTime = 66 s

Time = 73

smoothSolver:  Solving for Ux, Initial residual = 0.0033776, Final residual = 0.000312536, No Iterations 3
smoothSolver:  Solving for Uy, Initial residual = 0.00305159, Final residual = 0.000258298, No Iterations 3
smoothSolver:  Solving for Uz, Initial residual = 0.00282787, Final residual = 0.00026505, No Iterations 3
GAMG:  Solving for p, Initial residual = 0.0143503, Final residual = 0.000531838, No Iterations 2
time step continuity errors : sum local = 0.210316, global = 0.0177698, cumulative = -3.13177
smoothSolver:  Solving for omega, Initial residual = 0.000141024, Final residual = 9.28625e-06, No Iterations 3
smoothSolver:  Solving for k, Initial residual = 0.00829839, Final residual = 0.000536917, No Iterations 3
ExecutionTime = 66.99 s  ClockTime = 67 s

Time = 74

smoothSolver:  Solving for Ux, Initial residual = 0.00312985, Final residual = 0.000285849, No Iterations 3
smoothSolver:  Solving for Uy, Initial residual = 0.00280601, Final residual = 0.000233671, No Iterations 3
smoothSolver:  Solving for Uz, Initial residual = 0.00264807, Final residual = 0.000248798, No Iterations 3
GAMG:  Solving for p, Initial residual = 0.0135785, Final residual = 0.000528699, No Iterations 2
time step continuity errors : sum local = 0.210897, global = 0.0434581, cumulative = -3.08831
smoothSolver:  Solving for omega, Initial residual = 0.000132407, Final residual = 8.58788e-06, No Iterations 3
smoothSolver:  Solving for k, Initial residual = 0.00787169, Final residual = 0.000505259, No Iterations 3
ExecutionTime = 67.85 s  ClockTime = 68 s

Time = 75

smoothSolver:  Solving for Ux, Initial residual = 0.00289636, Final residual = 0.000266491, No Iterations 3
smoothSolver:  Solving for Uy, Initial residual = 0.00258264, Final residual = 0.00021069, No Iterations 3
smoothSolver:  Solving for Uz, Initial residual = 0.00247842, Final residual = 0.000231032, No Iterations 3
GAMG:  Solving for p, Initial residual = 0.013042, Final residual = 0.000500803, No Iterations 2
time step continuity errors : sum local = 0.20112, global = 0.0609037, cumulative = -3.0274
smoothSolver:  Solving for omega, Initial residual = 0.000124562, Final residual = 8.06315e-06, No Iterations 3
smoothSolver:  Solving for k, Initial residual = 0.00749487, Final residual = 0.000470742, No Iterations 3
ExecutionTime = 68.72 s  ClockTime = 69 s

Time = 76

smoothSolver:  Solving for Ux, Initial residual = 0.00269123, Final residual = 0.000251895, No Iterations 3
smoothSolver:  Solving for Uy, Initial residual = 0.00238588, Final residual = 0.00019577, No Iterations 3
smoothSolver:  Solving for Uz, Initial residual = 0.00231054, Final residual = 0.000214157, No Iterations 3
GAMG:  Solving for p, Initial residual = 0.0125761, Final residual = 0.000470115, No Iterations 2
time step continuity errors : sum local = 0.188414, global = 0.0659739, cumulative = -2.96143
smoothSolver:  Solving for omega, Initial residual = 0.000116554, Final residual = 7.5463e-06, No Iterations 3
smoothSolver:  Solving for k, Initial residual = 0.00705888, Final residual = 0.000448373, No Iterations 3
ExecutionTime = 69.59 s  ClockTime = 70 s

Time = 77

smoothSolver:  Solving for Ux, Initial residual = 0.00250213, Final residual = 0.000235481, No Iterations 3
smoothSolver:  Solving for Uy, Initial residual = 0.00220775, Final residual = 0.000180573, No Iterations 3
smoothSolver:  Solving for Uz, Initial residual = 0.00216395, Final residual = 0.000201973, No Iterations 3
GAMG:  Solving for p, Initial residual = 0.0119529, Final residual = 0.000450761, No Iterations 2
time step continuity errors : sum local = 0.178716, global = 0.0534375, cumulative = -2.90799
smoothSolver:  Solving for omega, Initial residual = 0.000108881, Final residual = 7.00443e-06, No Iterations 3
smoothSolver:  Solving for k, Initial residual = 0.006566, Final residual = 0.000420115, No Iterations 3
ExecutionTime = 70.45 s  ClockTime = 71 s

Time = 78

smoothSolver:  Solving for Ux, Initial residual = 0.00233034, Final residual = 0.000220158, No Iterations 3
smoothSolver:  Solving for Uy, Initial residual = 0.00205899, Final residual = 0.000170994, No Iterations 3
smoothSolver:  Solving for Uz, Initial residual = 0.00202113, Final residual = 0.000189309, No Iterations 3
GAMG:  Solving for p, Initial residual = 0.0113179, Final residual = 0.000439453, No Iterations 2
time step continuity errors : sum local = 0.172379, global = 0.0300545, cumulative = -2.87794
smoothSolver:  Solving for omega, Initial residual = 0.000102192, Final residual = 6.47259e-06, No Iterations 3
smoothSolver:  Solving for k, Initial residual = 0.00622149, Final residual = 0.000385136, No Iterations 3
ExecutionTime = 71.31 s  ClockTime = 72 s

Time = 79

smoothSolver:  Solving for Ux, Initial residual = 0.00216621, Final residual = 0.000203856, No Iterations 3
smoothSolver:  Solving for Uy, Initial residual = 0.00192115, Final residual = 0.000161814, No Iterations 3
smoothSolver:  Solving for Uz, Initial residual = 0.00190369, Final residual = 0.000176946, No Iterations 3
GAMG:  Solving for p, Initial residual = 0.0105432, Final residual = 0.000416498, No Iterations 2
time step continuity errors : sum local = 0.162854, global = 0.00661292, cumulative = -2.87132
smoothSolver:  Solving for omega, Initial residual = 9.63074e-05, Final residual = 6.02408e-06, No Iterations 3
bounding omega, min: -19.711 max: 1.10676e+06 average: 22150.9
smoothSolver:  Solving for k, Initial residual = 0.00590923, Final residual = 0.000369202, No Iterations 3
ExecutionTime = 72.19 s  ClockTime = 73 s

Time = 80

smoothSolver:  Solving for Ux, Initial residual = 0.0020173, Final residual = 0.000188166, No Iterations 3
smoothSolver:  Solving for Uy, Initial residual = 0.00179823, Final residual = 0.000150545, No Iterations 3
smoothSolver:  Solving for Uz, Initial residual = 0.00180198, Final residual = 0.000167137, No Iterations 3
GAMG:  Solving for p, Initial residual = 0.00994152, Final residual = 0.000383479, No Iterations 2
time step continuity errors : sum local = 0.149206, global = -0.00964912, cumulative = -2.88097
smoothSolver:  Solving for omega, Initial residual = 9.05054e-05, Final residual = 5.66596e-06, No Iterations 3
bounding omega, min: -79.2781 max: 1.10676e+06 average: 22151.8
smoothSolver:  Solving for k, Initial residual = 0.00563935, Final residual = 0.000341274, No Iterations 3
ExecutionTime = 73.07 s  ClockTime = 73 s

Time = 81

smoothSolver:  Solving for Ux, Initial residual = 0.00187608, Final residual = 0.000175573, No Iterations 3
smoothSolver:  Solving for Uy, Initial residual = 0.00167671, Final residual = 0.000137756, No Iterations 3
smoothSolver:  Solving for Uz, Initial residual = 0.00169442, Final residual = 0.000156801, No Iterations 3
GAMG:  Solving for p, Initial residual = 0.00938598, Final residual = 0.000360449, No Iterations 2
time step continuity errors : sum local = 0.140582, global = -0.0179791, cumulative = -2.89895
smoothSolver:  Solving for omega, Initial residual = 8.4752e-05, Final residual = 5.36334e-06, No Iterations 3
bounding omega, min: -40.8484 max: 1.10676e+06 average: 22152.6
smoothSolver:  Solving for k, Initial residual = 0.00535931, Final residual = 0.00032374, No Iterations 3
ExecutionTime = 73.95 s  ClockTime = 74 s

Time = 82

smoothSolver:  Solving for Ux, Initial residual = 0.0017683, Final residual = 0.000168239, No Iterations 3
smoothSolver:  Solving for Uy, Initial residual = 0.0015721, Final residual = 0.000129396, No Iterations 3
smoothSolver:  Solving for Uz, Initial residual = 0.001597, Final residual = 0.000148804, No Iterations 3
GAMG:  Solving for p, Initial residual = 0.00887168, Final residual = 0.000342141, No Iterations 2
time step continuity errors : sum local = 0.134289, global = -0.0198073, cumulative = -2.91876
smoothSolver:  Solving for omega, Initial residual = 7.89472e-05, Final residual = 5.2517e-06, No Iterations 3
bounding omega, min: -20.1755 max: 1.10676e+06 average: 22152.9
smoothSolver:  Solving for k, Initial residual = 0.00507404, Final residual = 0.000325684, No Iterations 3
ExecutionTime = 74.82 s  ClockTime = 75 s

Time = 83

smoothSolver:  Solving for Ux, Initial residual = 0.00168379, Final residual = 0.00016095, No Iterations 3
smoothSolver:  Solving for Uy, Initial residual = 0.00148164, Final residual = 0.000125316, No Iterations 3
smoothSolver:  Solving for Uz, Initial residual = 0.0015035, Final residual = 0.000141978, No Iterations 3
GAMG:  Solving for p, Initial residual = 0.00838941, Final residual = 0.000330906, No Iterations 2
time step continuity errors : sum local = 0.131149, global = -0.0152416, cumulative = -2.934
smoothSolver:  Solving for omega, Initial residual = 7.52271e-05, Final residual = 5.16911e-06, No Iterations 3
smoothSolver:  Solving for k, Initial residual = 0.00498406, Final residual = 0.000331453, No Iterations 3
ExecutionTime = 75.68 s  ClockTime = 76 s

Time = 84

smoothSolver:  Solving for Ux, Initial residual = 0.00159433, Final residual = 0.000154437, No Iterations 3
smoothSolver:  Solving for Uy, Initial residual = 0.00139073, Final residual = 0.000120555, No Iterations 3
smoothSolver:  Solving for Uz, Initial residual = 0.0014261, Final residual = 0.000135154, No Iterations 3
GAMG:  Solving for p, Initial residual = 0.00806102, Final residual = 0.000321412, No Iterations 2
time step continuity errors : sum local = 0.12891, global = -0.00515473, cumulative = -2.93916
smoothSolver:  Solving for omega, Initial residual = 7.05949e-05, Final residual = 4.76574e-06, No Iterations 3
smoothSolver:  Solving for k, Initial residual = 0.0047054, Final residual = 0.000301498, No Iterations 3
ExecutionTime = 76.54 s  ClockTime = 77 s

Time = 85

smoothSolver:  Solving for Ux, Initial residual = 0.00151685, Final residual = 0.00014512, No Iterations 3
smoothSolver:  Solving for Uy, Initial residual = 0.00130152, Final residual = 0.000113383, No Iterations 3
smoothSolver:  Solving for Uz, Initial residual = 0.00135911, Final residual = 0.000128967, No Iterations 3
GAMG:  Solving for p, Initial residual = 0.00779443, Final residual = 0.000299426, No Iterations 2
time step continuity errors : sum local = 0.12147, global = 0.00527374, cumulative = -2.93388
smoothSolver:  Solving for omega, Initial residual = 6.76163e-05, Final residual = 4.48255e-06, No Iterations 3
smoothSolver:  Solving for k, Initial residual = 0.00454281, Final residual = 0.000290872, No Iterations 3
ExecutionTime = 77.41 s  ClockTime = 78 s

Time = 86

smoothSolver:  Solving for Ux, Initial residual = 0.0014314, Final residual = 0.000133763, No Iterations 3
smoothSolver:  Solving for Uy, Initial residual = 0.00121394, Final residual = 0.000103249, No Iterations 3
smoothSolver:  Solving for Uz, Initial residual = 0.00128395, Final residual = 0.000121948, No Iterations 3
GAMG:  Solving for p, Initial residual = 0.00758936, Final residual = 0.000272384, No Iterations 2
time step continuity errors : sum local = 0.111622, global = 0.01205, cumulative = -2.92183
smoothSolver:  Solving for omega, Initial residual = 6.5975e-05, Final residual = 4.34124e-06, No Iterations 3
smoothSolver:  Solving for k, Initial residual = 0.00444667, Final residual = 0.000271846, No Iterations 3
ExecutionTime = 78.28 s  ClockTime = 79 s

Time = 87

smoothSolver:  Solving for Ux, Initial residual = 0.00132895, Final residual = 0.000122234, No Iterations 3
smoothSolver:  Solving for Uy, Initial residual = 0.00112686, Final residual = 9.4839e-05, No Iterations 3
smoothSolver:  Solving for Uz, Initial residual = 0.00121363, Final residual = 0.000113948, No Iterations 3
GAMG:  Solving for p, Initial residual = 0.0072998, Final residual = 0.00025792, No Iterations 2
time step continuity errors : sum local = 0.106527, global = 0.0143295, cumulative = -2.9075
smoothSolver:  Solving for omega, Initial residual = 6.43884e-05, Final residual = 4.17983e-06, No Iterations 3
smoothSolver:  Solving for k, Initial residual = 0.00432818, Final residual = 0.000268474, No Iterations 3
ExecutionTime = 79.15 s  ClockTime = 80 s

Time = 88

smoothSolver:  Solving for Ux, Initial residual = 0.00123647, Final residual = 0.000112262, No Iterations 3
smoothSolver:  Solving for Uy, Initial residual = 0.0010526, Final residual = 8.92795e-05, No Iterations 3
smoothSolver:  Solving for Uz, Initial residual = 0.00114368, Final residual = 0.000106891, No Iterations 3
GAMG:  Solving for p, Initial residual = 0.00688839, Final residual = 0.000254145, No Iterations 2
time step continuity errors : sum local = 0.105335, global = 0.0123491, cumulative = -2.89515
smoothSolver:  Solving for omega, Initial residual = 6.27239e-05, Final residual = 4.12737e-06, No Iterations 3
smoothSolver:  Solving for k, Initial residual = 0.00421906, Final residual = 0.000272819, No Iterations 3
ExecutionTime = 80.01 s  ClockTime = 80 s

Time = 89

smoothSolver:  Solving for Ux, Initial residual = 0.00115007, Final residual = 0.000104364, No Iterations 3
smoothSolver:  Solving for Uy, Initial residual = 0.000986681, Final residual = 8.40519e-05, No Iterations 3
smoothSolver:  Solving for Uz, Initial residual = 0.00107593, Final residual = 0.000101165, No Iterations 3
GAMG:  Solving for p, Initial residual = 0.00653934, Final residual = 0.000243594, No Iterations 2
time step continuity errors : sum local = 0.100791, global = 0.00696908, cumulative = -2.88819
smoothSolver:  Solving for omega, Initial residual = 5.76102e-05, Final residual = 3.85463e-06, No Iterations 3
smoothSolver:  Solving for k, Initial residual = 0.0038336, Final residual = 0.000256177, No Iterations 3
ExecutionTime = 80.88 s  ClockTime = 81 s

Time = 90

smoothSolver:  Solving for Ux, Initial residual = 0.00107921, Final residual = 9.71831e-05, No Iterations 3
smoothSolver:  Solving for Uy, Initial residual = 0.000927193, Final residual = 7.98705e-05, No Iterations 3
smoothSolver:  Solving for Uz, Initial residual = 0.00100965, Final residual = 9.43706e-05, No Iterations 3
GAMG:  Solving for p, Initial residual = 0.00626784, Final residual = 0.000226374, No Iterations 2
time step continuity errors : sum local = 0.0930898, global = 0.00174997, cumulative = -2.88644
smoothSolver:  Solving for omega, Initial residual = 5.57249e-05, Final residual = 3.57915e-06, No Iterations 3
smoothSolver:  Solving for k, Initial residual = 0.00375259, Final residual = 0.000246011, No Iterations 3
ExecutionTime = 81.75 s  ClockTime = 82 s

Time = 91

smoothSolver:  Solving for Ux, Initial residual = 0.00101322, Final residual = 9.092e-05, No Iterations 3
smoothSolver:  Solving for Uy, Initial residual = 0.000880553, Final residual = 7.57363e-05, No Iterations 3
smoothSolver:  Solving for Uz, Initial residual = 0.000948863, Final residual = 8.78375e-05, No Iterations 3
GAMG:  Solving for p, Initial residual = 0.00602176, Final residual = 0.000208015, No Iterations 2
time step continuity errors : sum local = 0.0848231, global = -4.122e-05, cumulative = -2.88648
smoothSolver:  Solving for omega, Initial residual = 5.22863e-05, Final residual = 3.29096e-06, No Iterations 3
smoothSolver:  Solving for k, Initial residual = 0.0034969, Final residual = 0.000221229, No Iterations 3
ExecutionTime = 82.61 s  ClockTime = 83 s

Time = 92

smoothSolver:  Solving for Ux, Initial residual = 0.000950404, Final residual = 8.49307e-05, No Iterations 3
smoothSolver:  Solving for Uy, Initial residual = 0.000836519, Final residual = 7.33124e-05, No Iterations 3
smoothSolver:  Solving for Uz, Initial residual = 0.000893553, Final residual = 8.2258e-05, No Iterations 3
GAMG:  Solving for p, Initial residual = 0.00549129, Final residual = 0.000197567, No Iterations 2
time step continuity errors : sum local = 0.0802519, global = 0.00349518, cumulative = -2.88298
smoothSolver:  Solving for omega, Initial residual = 4.8409e-05, Final residual = 2.96942e-06, No Iterations 3
smoothSolver:  Solving for k, Initial residual = 0.00332465, Final residual = 0.000209583, No Iterations 3
ExecutionTime = 83.47 s  ClockTime = 84 s

Time = 93

smoothSolver:  Solving for Ux, Initial residual = 0.000892468, Final residual = 7.97784e-05, No Iterations 3
smoothSolver:  Solving for Uy, Initial residual = 0.000789097, Final residual = 7.01549e-05, No Iterations 3
smoothSolver:  Solving for Uz, Initial residual = 0.000840972, Final residual = 7.63031e-05, No Iterations 3
GAMG:  Solving for p, Initial residual = 0.00492302, Final residual = 0.000193232, No Iterations 2
time step continuity errors : sum local = 0.0783768, global = 0.00683979, cumulative = -2.87614
smoothSolver:  Solving for omega, Initial residual = 4.42132e-05, Final residual = 2.75363e-06, No Iterations 3
bounding omega, min: -2.17105 max: 1.10676e+06 average: 22153.5
smoothSolver:  Solving for k, Initial residual = 0.0030732, Final residual = 0.000196109, No Iterations 3
ExecutionTime = 84.34 s  ClockTime = 85 s

Time = 94

smoothSolver:  Solving for Ux, Initial residual = 0.000838744, Final residual = 7.49998e-05, No Iterations 3
smoothSolver:  Solving for Uy, Initial residual = 0.000740249, Final residual = 6.44199e-05, No Iterations 3
smoothSolver:  Solving for Uz, Initial residual = 0.000787147, Final residual = 7.22071e-05, No Iterations 3
GAMG:  Solving for p, Initial residual = 0.00461544, Final residual = 0.000184669, No Iterations 2
time step continuity errors : sum local = 0.075079, global = 0.00781826, cumulative = -2.86832
smoothSolver:  Solving for omega, Initial residual = 4.16052e-05, Final residual = 2.71201e-06, No Iterations 3
bounding omega, min: -0.139105 max: 1.10676e+06 average: 22153.5
smoothSolver:  Solving for k, Initial residual = 0.00299745, Final residual = 0.000202991, No Iterations 3
ExecutionTime = 85.22 s  ClockTime = 86 s

Time = 95

smoothSolver:  Solving for Ux, Initial residual = 0.000787843, Final residual = 7.11278e-05, No Iterations 3
smoothSolver:  Solving for Uy, Initial residual = 0.000686248, Final residual = 5.95049e-05, No Iterations 3
smoothSolver:  Solving for Uz, Initial residual = 0.00074088, Final residual = 6.93175e-05, No Iterations 3
GAMG:  Solving for p, Initial residual = 0.00443513, Final residual = 0.000170124, No Iterations 2
time step continuity errors : sum local = 0.0695348, global = 0.00702826, cumulative = -2.86129
smoothSolver:  Solving for omega, Initial residual = 3.88789e-05, Final residual = 2.47989e-06, No Iterations 3
bounding omega, min: -7.07896 max: 1.10676e+06 average: 22153.6
smoothSolver:  Solving for k, Initial residual = 0.00282598, Final residual = 0.000185348, No Iterations 3
ExecutionTime = 86.11 s  ClockTime = 87 s

Time = 96

smoothSolver:  Solving for Ux, Initial residual = 0.000746242, Final residual = 6.81419e-05, No Iterations 3
smoothSolver:  Solving for Uy, Initial residual = 0.000640459, Final residual = 5.48484e-05, No Iterations 3
smoothSolver:  Solving for Uz, Initial residual = 0.000695154, Final residual = 6.55219e-05, No Iterations 3
GAMG:  Solving for p, Initial residual = 0.0042634, Final residual = 0.000160798, No Iterations 2
time step continuity errors : sum local = 0.0660782, global = 0.00491722, cumulative = -2.85638
smoothSolver:  Solving for omega, Initial residual = 3.72778e-05, Final residual = 2.32653e-06, No Iterations 3
smoothSolver:  Solving for k, Initial residual = 0.00275029, Final residual = 0.000180413, No Iterations 3
ExecutionTime = 86.97 s  ClockTime = 87 s

Time = 97

smoothSolver:  Solving for Ux, Initial residual = 0.00069901, Final residual = 6.41881e-05, No Iterations 3
smoothSolver:  Solving for Uy, Initial residual = 0.000600371, Final residual = 5.17368e-05, No Iterations 3
smoothSolver:  Solving for Uz, Initial residual = 0.000649716, Final residual = 6.0539e-05, No Iterations 3
GAMG:  Solving for p, Initial residual = 0.00406965, Final residual = 0.000155419, No Iterations 2
time step continuity errors : sum local = 0.06417, global = 0.002352, cumulative = -2.85403
smoothSolver:  Solving for omega, Initial residual = 3.52989e-05, Final residual = 2.22412e-06, No Iterations 3
smoothSolver:  Solving for k, Initial residual = 0.00259763, Final residual = 0.0001683, No Iterations 3
ExecutionTime = 87.83 s  ClockTime = 88 s

Time = 98

smoothSolver:  Solving for Ux, Initial residual = 0.000660845, Final residual = 6.08638e-05, No Iterations 3
smoothSolver:  Solving for Uy, Initial residual = 0.000566007, Final residual = 4.96155e-05, No Iterations 3
smoothSolver:  Solving for Uz, Initial residual = 0.000607295, Final residual = 5.57685e-05, No Iterations 3
GAMG:  Solving for p, Initial residual = 0.00386221, Final residual = 0.000151924, No Iterations 2
time step continuity errors : sum local = 0.0629106, global = 1.0605e-05, cumulative = -2.85402
smoothSolver:  Solving for omega, Initial residual = 3.37926e-05, Final residual = 2.12373e-06, No Iterations 3
smoothSolver:  Solving for k, Initial residual = 0.00249226, Final residual = 0.000166214, No Iterations 3
ExecutionTime = 88.69 s  ClockTime = 89 s

Time = 99

smoothSolver:  Solving for Ux, Initial residual = 0.000623513, Final residual = 5.87104e-05, No Iterations 3
smoothSolver:  Solving for Uy, Initial residual = 0.000536319, Final residual = 4.6953e-05, No Iterations 3
smoothSolver:  Solving for Uz, Initial residual = 0.000565574, Final residual = 5.2206e-05, No Iterations 3
GAMG:  Solving for p, Initial residual = 0.00370756, Final residual = 0.000145929, No Iterations 2
time step continuity errors : sum local = 0.0605004, global = -0.00127559, cumulative = -2.85529
smoothSolver:  Solving for omega, Initial residual = 3.28162e-05, Final residual = 2.0787e-06, No Iterations 3
smoothSolver:  Solving for k, Initial residual = 0.00242578, Final residual = 0.000167294, No Iterations 3
ExecutionTime = 89.56 s  ClockTime = 90 s

Time = 100

[...]
smoothSolver:  Solving for Uy, Initial residual = 5.29166e-06, Final residual = 2.50878e-07, No Iterations 4
smoothSolver:  Solving for Uz, Initial residual = 4.07129e-06, Final residual = 1.94104e-07, No Iterations 4
GAMG:  Solving for p, Initial residual = 2.36895e-05, Final residual = 1.2169e-06, No Iterations 2
time step continuity errors : sum local = 0.00050736, global = -8.46334e-05, cumulative = -2.83349
smoothSolver:  Solving for omega, Initial residual = 9.05915e-07, Final residual = 4.55398e-08, No Iterations 3
smoothSolver:  Solving for k, Initial residual = 2.33748e-05, Final residual = 1.83361e-06, No Iterations 3
ExecutionTime = 248.6 s  ClockTime = 249 s

Time = 277

smoothSolver:  Solving for Ux, Initial residual = 7.13391e-06, Final residual = 3.58434e-07, No Iterations 4
smoothSolver:  Solving for Uy, Initial residual = 5.03046e-06, Final residual = 2.38035e-07, No Iterations 4
smoothSolver:  Solving for Uz, Initial residual = 3.93179e-06, Final residual = 1.85626e-07, No Iterations 4
GAMG:  Solving for p, Initial residual = 2.48216e-05, Final residual = 1.20426e-06, No Iterations 2
time step continuity errors : sum local = 0.000502106, global = -0.000104109, cumulative = -2.83359
smoothSolver:  Solving for omega, Initial residual = 8.99162e-07, Final residual = 4.56557e-08, No Iterations 3
smoothSolver:  Solving for k, Initial residual = 2.24878e-05, Final residual = 1.7884e-06, No Iterations 3
ExecutionTime = 249.5 s  ClockTime = 250 s

Time = 278

smoothSolver:  Solving for Ux, Initial residual = 7.16167e-06, Final residual = 3.39123e-07, No Iterations 4
smoothSolver:  Solving for Uy, Initial residual = 4.91409e-06, Final residual = 4.83284e-07, No Iterations 3
smoothSolver:  Solving for Uz, Initial residual = 3.91099e-06, Final residual = 3.88459e-07, No Iterations 3
GAMG:  Solving for p, Initial residual = 2.30914e-05, Final residual = 1.18396e-06, No Iterations 2
time step continuity errors : sum local = 0.000493588, global = -0.000113188, cumulative = -2.8337
smoothSolver:  Solving for omega, Initial residual = 8.80783e-07, Final residual = 4.37379e-08, No Iterations 3
smoothSolver:  Solving for k, Initial residual = 2.13348e-05, Final residual = 1.76442e-06, No Iterations 3
ExecutionTime = 250.37 s  ClockTime = 251 s

Time = 279

smoothSolver:  Solving for Ux, Initial residual = 6.71393e-06, Final residual = 3.18398e-07, No Iterations 4
smoothSolver:  Solving for Uy, Initial residual = 4.6898e-06, Final residual = 4.56248e-07, No Iterations 3
smoothSolver:  Solving for Uz, Initial residual = 3.8353e-06, Final residual = 3.78931e-07, No Iterations 3
GAMG:  Solving for p, Initial residual = 2.40024e-05, Final residual = 1.09855e-06, No Iterations 2
time step continuity errors : sum local = 0.000457993, global = -0.000112717, cumulative = -2.83382
smoothSolver:  Solving for omega, Initial residual = 8.76482e-07, Final residual = 4.31291e-08, No Iterations 3
smoothSolver:  Solving for k, Initial residual = 2.03565e-05, Final residual = 1.661e-06, No Iterations 3
ExecutionTime = 251.23 s  ClockTime = 252 s

Time = 280

smoothSolver:  Solving for Ux, Initial residual = 6.88093e-06, Final residual = 6.55995e-07, No Iterations 3
smoothSolver:  Solving for Uy, Initial residual = 4.67773e-06, Final residual = 4.4632e-07, No Iterations 3
smoothSolver:  Solving for Uz, Initial residual = 3.82939e-06, Final residual = 3.69594e-07, No Iterations 3
GAMG:  Solving for p, Initial residual = 2.21543e-05, Final residual = 1.04971e-06, No Iterations 2
time step continuity errors : sum local = 0.000437583, global = -9.8949e-05, cumulative = -2.83392
smoothSolver:  Solving for omega, Initial residual = 8.60036e-07, Final residual = 4.14911e-08, No Iterations 3
smoothSolver:  Solving for k, Initial residual = 1.94504e-05, Final residual = 1.57963e-06, No Iterations 3
ExecutionTime = 252.1 s  ClockTime = 253 s

Time = 281

smoothSolver:  Solving for Ux, Initial residual = 6.58429e-06, Final residual = 6.43614e-07, No Iterations 3
smoothSolver:  Solving for Uy, Initial residual = 4.57538e-06, Final residual = 4.48622e-07, No Iterations 3
smoothSolver:  Solving for Uz, Initial residual = 3.71773e-06, Final residual = 3.66086e-07, No Iterations 3
GAMG:  Solving for p, Initial residual = 2.33659e-05, Final residual = 9.64788e-07, No Iterations 2
time step continuity errors : sum local = 0.000402196, global = -8.04563e-05, cumulative = -2.834
smoothSolver:  Solving for omega, Initial residual = 8.61767e-07, Final residual = 4.15452e-08, No Iterations 3
smoothSolver:  Solving for k, Initial residual = 1.89155e-05, Final residual = 1.45924e-06, No Iterations 3
ExecutionTime = 252.97 s  ClockTime = 254 s

Time = 282

smoothSolver:  Solving for Ux, Initial residual = 6.84224e-06, Final residual = 6.33515e-07, No Iterations 3
smoothSolver:  Solving for Uy, Initial residual = 4.63499e-06, Final residual = 4.53942e-07, No Iterations 3
smoothSolver:  Solving for Uz, Initial residual = 3.6859e-06, Final residual = 3.60426e-07, No Iterations 3
GAMG:  Solving for p, Initial residual = 2.15945e-05, Final residual = 9.37283e-07, No Iterations 2
time step continuity errors : sum local = 0.000390692, global = -5.14967e-05, cumulative = -2.83405
smoothSolver:  Solving for omega, Initial residual = 8.52591e-07, Final residual = 4.09564e-08, No Iterations 3
smoothSolver:  Solving for k, Initial residual = 1.86992e-05, Final residual = 1.42454e-06, No Iterations 3
ExecutionTime = 253.84 s  ClockTime = 255 s

Time = 283

smoothSolver:  Solving for Ux, Initial residual = 6.53247e-06, Final residual = 6.31394e-07, No Iterations 3
smoothSolver:  Solving for Uy, Initial residual = 4.56537e-06, Final residual = 2.13949e-07, No Iterations 4
smoothSolver:  Solving for Uz, Initial residual = 3.57016e-06, Final residual = 1.65585e-07, No Iterations 4
GAMG:  Solving for p, Initial residual = 2.27604e-05, Final residual = 9.03362e-07, No Iterations 2
time step continuity errors : sum local = 0.000376572, global = -2.2874e-05, cumulative = -2.83407
smoothSolver:  Solving for omega, Initial residual = 8.5526e-07, Final residual = 4.15669e-08, No Iterations 3
smoothSolver:  Solving for k, Initial residual = 1.901e-05, Final residual = 1.41744e-06, No Iterations 3
ExecutionTime = 254.71 s  ClockTime = 255 s

Time = 284

smoothSolver:  Solving for Ux, Initial residual = 6.80979e-06, Final residual = 6.4003e-07, No Iterations 3
smoothSolver:  Solving for Uy, Initial residual = 4.58602e-06, Final residual = 2.13781e-07, No Iterations 4
smoothSolver:  Solving for Uz, Initial residual = 3.53756e-06, Final residual = 3.53517e-07, No Iterations 3
GAMG:  Solving for p, Initial residual = 2.07041e-05, Final residual = 9.43202e-07, No Iterations 2
time step continuity errors : sum local = 0.00039315, global = 8.94029e-06, cumulative = -2.83406
smoothSolver:  Solving for omega, Initial residual = 8.50102e-07, Final residual = 4.10004e-08, No Iterations 3
smoothSolver:  Solving for k, Initial residual = 1.92012e-05, Final residual = 1.44306e-06, No Iterations 3
ExecutionTime = 255.58 s  ClockTime = 256 s

Time = 285

smoothSolver:  Solving for Ux, Initial residual = 6.39465e-06, Final residual = 3.00228e-07, No Iterations 4
smoothSolver:  Solving for Uy, Initial residual = 4.42469e-06, Final residual = 2.08614e-07, No Iterations 4
smoothSolver:  Solving for Uz, Initial residual = 3.41082e-06, Final residual = 1.63607e-07, No Iterations 4
GAMG:  Solving for p, Initial residual = 2.16478e-05, Final residual = 9.97178e-07, No Iterations 2
time step continuity errors : sum local = 0.000415679, global = 3.63257e-05, cumulative = -2.83402
smoothSolver:  Solving for omega, Initial residual = 8.52545e-07, Final residual = 4.20091e-08, No Iterations 3
smoothSolver:  Solving for k, Initial residual = 1.92325e-05, Final residual = 1.46551e-06, No Iterations 3
ExecutionTime = 256.47 s  ClockTime = 257 s

Time = 286

smoothSolver:  Solving for Ux, Initial residual = 6.48612e-06, Final residual = 6.30997e-07, No Iterations 3
smoothSolver:  Solving for Uy, Initial residual = 4.37379e-06, Final residual = 4.35917e-07, No Iterations 3
smoothSolver:  Solving for Uz, Initial residual = 3.36073e-06, Final residual = 1.57647e-07, No Iterations 4
GAMG:  Solving for p, Initial residual = 1.99044e-05, Final residual = 1.04141e-06, No Iterations 2
time step continuity errors : sum local = 0.000434092, global = 6.20227e-05, cumulative = -2.83396
smoothSolver:  Solving for omega, Initial residual = 8.44868e-07, Final residual = 4.15066e-08, No Iterations 3
smoothSolver:  Solving for k, Initial residual = 1.88697e-05, Final residual = 1.44068e-06, No Iterations 3
ExecutionTime = 257.34 s  ClockTime = 258 s

Time = 287

smoothSolver:  Solving for Ux, Initial residual = 6.00693e-06, Final residual = 2.94728e-07, No Iterations 4
smoothSolver:  Solving for Uy, Initial residual = 4.22328e-06, Final residual = 1.9683e-07, No Iterations 4
smoothSolver:  Solving for Uz, Initial residual = 3.20453e-06, Final residual = 1.51394e-07, No Iterations 4
GAMG:  Solving for p, Initial residual = 2.09847e-05, Final residual = 1.07168e-06, No Iterations 2
time step continuity errors : sum local = 0.000446753, global = 7.89119e-05, cumulative = -2.83388
smoothSolver:  Solving for omega, Initial residual = 8.41454e-07, Final residual = 4.20258e-08, No Iterations 3
smoothSolver:  Solving for k, Initial residual = 1.82512e-05, Final residual = 1.4489e-06, No Iterations 3
ExecutionTime = 258.22 s  ClockTime = 259 s

Time = 288

smoothSolver:  Solving for Ux, Initial residual = 6.04021e-06, Final residual = 2.83072e-07, No Iterations 4
smoothSolver:  Solving for Uy, Initial residual = 4.11165e-06, Final residual = 4.03363e-07, No Iterations 3
smoothSolver:  Solving for Uz, Initial residual = 3.19336e-06, Final residual = 3.15351e-07, No Iterations 3
GAMG:  Solving for p, Initial residual = 1.93131e-05, Final residual = 1.04091e-06, No Iterations 2
time step continuity errors : sum local = 0.00043391, global = 9.03377e-05, cumulative = -2.83379
smoothSolver:  Solving for omega, Initial residual = 8.2986e-07, Final residual = 4.0555e-08, No Iterations 3
smoothSolver:  Solving for k, Initial residual = 1.74947e-05, Final residual = 1.40001e-06, No Iterations 3
ExecutionTime = 259.1 s  ClockTime = 260 s

Time = 289

smoothSolver:  Solving for Ux, Initial residual = 5.5123e-06, Final residual = 2.64598e-07, No Iterations 4
smoothSolver:  Solving for Uy, Initial residual = 3.88225e-06, Final residual = 3.80203e-07, No Iterations 3
smoothSolver:  Solving for Uz, Initial residual = 3.09275e-06, Final residual = 3.08669e-07, No Iterations 3
GAMG:  Solving for p, Initial residual = 2.02305e-05, Final residual = 1.0033e-06, No Iterations 2
time step continuity errors : sum local = 0.000418277, global = 9.38129e-05, cumulative = -2.8337
smoothSolver:  Solving for omega, Initial residual = 8.21363e-07, Final residual = 4.03482e-08, No Iterations 3
smoothSolver:  Solving for k, Initial residual = 1.65951e-05, Final residual = 1.36864e-06, No Iterations 3
ExecutionTime = 259.96 s  ClockTime = 261 s

Time = 290

smoothSolver:  Solving for Ux, Initial residual = 5.71761e-06, Final residual = 5.46993e-07, No Iterations 3
smoothSolver:  Solving for Uy, Initial residual = 3.81525e-06, Final residual = 3.64052e-07, No Iterations 3
smoothSolver:  Solving for Uz, Initial residual = 3.14412e-06, Final residual = 3.04299e-07, No Iterations 3
GAMG:  Solving for p, Initial residual = 1.84595e-05, Final residual = 9.34586e-07, No Iterations 2
time step continuity errors : sum local = 0.000389614, global = 8.89833e-05, cumulative = -2.83361
smoothSolver:  Solving for omega, Initial residual = 8.10359e-07, Final residual = 3.82839e-08, No Iterations 3
smoothSolver:  Solving for k, Initial residual = 1.58145e-05, Final residual = 1.26472e-06, No Iterations 3
ExecutionTime = 260.82 s  ClockTime = 262 s

Time = 291

smoothSolver:  Solving for Ux, Initial residual = 5.39043e-06, Final residual = 5.28872e-07, No Iterations 3
smoothSolver:  Solving for Uy, Initial residual = 3.67473e-06, Final residual = 3.61424e-07, No Iterations 3
smoothSolver:  Solving for Uz, Initial residual = 3.02129e-06, Final residual = 2.98158e-07, No Iterations 3
GAMG:  Solving for p, Initial residual = 1.95029e-05, Final residual = 8.77756e-07, No Iterations 2
time step continuity errors : sum local = 0.000365961, global = 7.85993e-05, cumulative = -2.83353
smoothSolver:  Solving for omega, Initial residual = 8.0907e-07, Final residual = 3.87996e-08, No Iterations 3
smoothSolver:  Solving for k, Initial residual = 1.51859e-05, Final residual = 1.19828e-06, No Iterations 3
ExecutionTime = 261.69 s  ClockTime = 262 s

Time = 292

smoothSolver:  Solving for Ux, Initial residual = 5.66133e-06, Final residual = 5.21722e-07, No Iterations 3
smoothSolver:  Solving for Uy, Initial residual = 3.70186e-06, Final residual = 3.66022e-07, No Iterations 3
smoothSolver:  Solving for Uz, Initial residual = 3.03001e-06, Final residual = 2.96292e-07, No Iterations 3
GAMG:  Solving for p, Initial residual = 1.78596e-05, Final residual = 8.26341e-07, No Iterations 2
time step continuity errors : sum local = 0.00034451, global = 5.98592e-05, cumulative = -2.83347
smoothSolver:  Solving for omega, Initial residual = 8.03394e-07, Final residual = 3.76949e-08, No Iterations 3
smoothSolver:  Solving for k, Initial residual = 1.4912e-05, Final residual = 1.125e-06, No Iterations 3
ExecutionTime = 262.55 s  ClockTime = 263 s

Time = 293

smoothSolver:  Solving for Ux, Initial residual = 5.32094e-06, Final residual = 5.1468e-07, No Iterations 3
smoothSolver:  Solving for Uy, Initial residual = 3.60365e-06, Final residual = 1.70165e-07, No Iterations 4
smoothSolver:  Solving for Uz, Initial residual = 2.87831e-06, Final residual = 1.33067e-07, No Iterations 4
GAMG:  Solving for p, Initial residual = 1.88547e-05, Final residual = 7.97902e-07, No Iterations 2
time step continuity errors : sum local = 0.000332683, global = 3.78571e-05, cumulative = -2.83343
smoothSolver:  Solving for omega, Initial residual = 8.03076e-07, Final residual = 3.85939e-08, No Iterations 3
smoothSolver:  Solving for k, Initial residual = 1.50154e-05, Final residual = 1.1175e-06, No Iterations 3
ExecutionTime = 263.42 s  ClockTime = 264 s

Time = 294

smoothSolver:  Solving for Ux, Initial residual = 5.60546e-06, Final residual = 5.20179e-07, No Iterations 3
smoothSolver:  Solving for Uy, Initial residual = 3.64092e-06, Final residual = 1.72496e-07, No Iterations 4
smoothSolver:  Solving for Uz, Initial residual = 2.89117e-06, Final residual = 1.33609e-07, No Iterations 4
GAMG:  Solving for p, Initial residual = 1.71276e-05, Final residual = 8.06972e-07, No Iterations 2
time step continuity errors : sum local = 0.000336445, global = 1.05195e-05, cumulative = -2.83342
smoothSolver:  Solving for omega, Initial residual = 7.98208e-07, Final residual = 3.76044e-08, No Iterations 3
smoothSolver:  Solving for k, Initial residual = 1.52668e-05, Final residual = 1.12923e-06, No Iterations 3
ExecutionTime = 264.3 s  ClockTime = 265 s

Time = 295

smoothSolver:  Solving for Ux, Initial residual = 5.25756e-06, Final residual = 5.22517e-07, No Iterations 3
smoothSolver:  Solving for Uy, Initial residual = 3.49877e-06, Final residual = 1.6994e-07, No Iterations 4
smoothSolver:  Solving for Uz, Initial residual = 2.7436e-06, Final residual = 1.31642e-07, No Iterations 4
GAMG:  Solving for p, Initial residual = 1.79453e-05, Final residual = 8.30198e-07, No Iterations 2
time step continuity errors : sum local = 0.000346153, global = -1.45118e-05, cumulative = -2.83344
smoothSolver:  Solving for omega, Initial residual = 8.01494e-07, Final residual = 3.86215e-08, No Iterations 3
smoothSolver:  Solving for k, Initial residual = 1.53485e-05, Final residual = 1.1452e-06, No Iterations 3
ExecutionTime = 265.18 s  ClockTime = 266 s

Time = 296

smoothSolver:  Solving for Ux, Initial residual = 5.4351e-06, Final residual = 5.21461e-07, No Iterations 3
smoothSolver:  Solving for Uy, Initial residual = 3.48487e-06, Final residual = 1.65554e-07, No Iterations 4
smoothSolver:  Solving for Uz, Initial residual = 2.7231e-06, Final residual = 1.2862e-07, No Iterations 4
GAMG:  Solving for p, Initial residual = 1.61223e-05, Final residual = 8.81133e-07, No Iterations 2
time step continuity errors : sum local = 0.000367362, global = -3.83306e-05, cumulative = -2.83348
smoothSolver:  Solving for omega, Initial residual = 7.94023e-07, Final residual = 3.79445e-08, No Iterations 3
smoothSolver:  Solving for k, Initial residual = 1.51328e-05, Final residual = 1.14971e-06, No Iterations 3
ExecutionTime = 266.06 s  ClockTime = 267 s

Time = 297

smoothSolver:  Solving for Ux, Initial residual = 5.00035e-06, Final residual = 2.42481e-07, No Iterations 4
smoothSolver:  Solving for Uy, Initial residual = 3.28345e-06, Final residual = 1.58514e-07, No Iterations 4
smoothSolver:  Solving for Uz, Initial residual = 2.56834e-06, Final residual = 1.22776e-07, No Iterations 4
GAMG:  Solving for p, Initial residual = 1.71687e-05, Final residual = 8.94292e-07, No Iterations 2
time step continuity errors : sum local = 0.000372869, global = -5.60703e-05, cumulative = -2.83353
smoothSolver:  Solving for omega, Initial residual = 7.95304e-07, Final residual = 3.87843e-08, No Iterations 3
smoothSolver:  Solving for k, Initial residual = 1.48049e-05, Final residual = 1.13336e-06, No Iterations 3
ExecutionTime = 266.95 s  ClockTime = 268 s

Time = 298

smoothSolver:  Solving for Ux, Initial residual = 5.03408e-06, Final residual = 4.99589e-07, No Iterations 3
smoothSolver:  Solving for Uy, Initial residual = 3.22665e-06, Final residual = 1.50562e-07, No Iterations 4
smoothSolver:  Solving for Uz, Initial residual = 2.55648e-06, Final residual = 1.16911e-07, No Iterations 4
GAMG:  Solving for p, Initial residual = 1.56378e-05, Final residual = 9.1957e-07, No Iterations 2
time step continuity errors : sum local = 0.000383375, global = -6.72353e-05, cumulative = -2.8336
smoothSolver:  Solving for omega, Initial residual = 7.83619e-07, Final residual = 3.76369e-08, No Iterations 3
smoothSolver:  Solving for k, Initial residual = 1.41604e-05, Final residual = 1.13177e-06, No Iterations 3
ExecutionTime = 267.83 s  ClockTime = 269 s

Time = 299

smoothSolver:  Solving for Ux, Initial residual = 4.64015e-06, Final residual = 2.24475e-07, No Iterations 4
smoothSolver:  Solving for Uy, Initial residual = 3.03288e-06, Final residual = 1.40539e-07, No Iterations 4
smoothSolver:  Solving for Uz, Initial residual = 2.4603e-06, Final residual = 1.12877e-07, No Iterations 4
GAMG:  Solving for p, Initial residual = 1.68628e-05, Final residual = 8.75432e-07, No Iterations 2
time step continuity errors : sum local = 0.000364989, global = -7.24395e-05, cumulative = -2.83367
smoothSolver:  Solving for omega, Initial residual = 7.82525e-07, Final residual = 3.7794e-08, No Iterations 3
smoothSolver:  Solving for k, Initial residual = 1.36174e-05, Final residual = 1.09011e-06, No Iterations 3
ExecutionTime = 268.72 s  ClockTime = 270 s

Time = 300

smoothSolver:  Solving for Ux, Initial residual = 4.76899e-06, Final residual = 4.57081e-07, No Iterations 3
smoothSolver:  Solving for Uy, Initial residual = 2.99359e-06, Final residual = 2.91376e-07, No Iterations 3
smoothSolver:  Solving for Uz, Initial residual = 2.46705e-06, Final residual = 2.39902e-07, No Iterations 3
GAMG:  Solving for p, Initial residual = 1.50754e-05, Final residual = 8.6665e-07, No Iterations 2
time step continuity errors : sum local = 0.000361293, global = -7.00857e-05, cumulative = -2.83374
smoothSolver:  Solving for omega, Initial residual = 7.68811e-07, Final residual = 3.62393e-08, No Iterations 3
smoothSolver:  Solving for k, Initial residual = 1.29119e-05, Final residual = 1.05834e-06, No Iterations 3
ExecutionTime = 271.5 s  ClockTime = 272 s

End

