/*---------------------------------------------------------------------------*\
| =========                 |                                                 |
| \\      /  F ield         | OpenFOAM: The Open Source CFD Toolbox           |
|  \\    /   O peration     | Version:  2.1.1                                 |
|   \\  /    A nd           | Web:      www.OpenFOAM.org                      |
|    \\/     M anipulation  |                                                 |
\*---------------------------------------------------------------------------*/
Build  : 2.1.1-221db2718bbb
Exec   : simpleFoam
Date   : Aug 26 2012
Time   : 18:57:18
Host   : "nathan-Latitude-D820"
PID    : 6558
Case   : /home/nathan/Desktop/Thesis/Benchmark-4-Airbox2/iter_0000
nProcs : 1
sigFpe : Enabling floating point exception trapping (FOAM_SIGFPE).
fileModificationChecking : Monitoring run-time modified files using timeStampMaster
allowSystemOperations : Disallowing user-supplied system call operations

// * * * * * * * * * * * * * * * * * * * * * * * * * * * * * * * * * * * * * //
Create time

Create mesh for time = 0

Reading field p

Reading field U

Reading/calculating face flux field phi

Selecting incompressible transport model Newtonian
Selecting RAS turbulence model kOmegaSST
kOmegaSSTCoeffs
{
    alphaK1         0.85034;
    alphaK2         1;
    alphaOmega1     0.5;
    alphaOmega2     0.85616;
    gamma1          0.5532;
    gamma2          0.4403;
    beta1           0.075;
    beta2           0.0828;
    betaStar        0.09;
    a1              0.31;
    c1              10;
}

No field sources present


SIMPLE: no convergence criteria found. Calculations will run for 300 steps.


Starting time loop

Reading surface description:
    abInlet

Reading surface description:
    abOutlet

Time = 1

smoothSolver:  Solving for Ux, Initial residual = 0.0690499, Final residual = 0.00419149, No Iterations 4
smoothSolver:  Solving for Uy, Initial residual = 0.18481, Final residual = 0.0167621, No Iterations 3
smoothSolver:  Solving for Uz, Initial residual = 0.0904821, Final residual = 0.0046752, No Iterations 4
GAMG:  Solving for p, Initial residual = 0.688187, Final residual = 0.0383691, No Iterations 4
time step continuity errors : sum local = 2.31289, global = 0.126579, cumulative = 0.126579
smoothSolver:  Solving for omega, Initial residual = 0.0101824, Final residual = 0.00087005, No Iterations 3
bounding omega, min: -316.968 max: 1.10495e+06 average: 15976.3
smoothSolver:  Solving for k, Initial residual = 1, Final residual = 0.066043, No Iterations 3
ExecutionTime = 3.69 s  ClockTime = 4 s

Time = 2

smoothSolver:  Solving for Ux, Initial residual = 0.0278865, Final residual = 0.00140589, No Iterations 4
smoothSolver:  Solving for Uy, Initial residual = 0.0756627, Final residual = 0.00610329, No Iterations 3
smoothSolver:  Solving for Uz, Initial residual = 0.0398804, Final residual = 0.00391786, No Iterations 3
GAMG:  Solving for p, Initial residual = 0.0351123, Final residual = 0.00348904, No Iterations 3
time step continuity errors : sum local = 3.99742, global = 0.363066, cumulative = 0.489645
smoothSolver:  Solving for omega, Initial residual = 0.00646666, Final residual = 0.000533721, No Iterations 3
smoothSolver:  Solving for k, Initial residual = 0.2595, Final residual = 0.01393, No Iterations 3
ExecutionTime = 4.64 s  ClockTime = 5 s

Time = 3

smoothSolver:  Solving for Ux, Initial residual = 0.0303425, Final residual = 0.00154872, No Iterations 4
smoothSolver:  Solving for Uy, Initial residual = 0.0764143, Final residual = 0.00363662, No Iterations 4
smoothSolver:  Solving for Uz, Initial residual = 0.0555695, Final residual = 0.00546077, No Iterations 3
GAMG:  Solving for p, Initial residual = 0.0178, Final residual = 0.00129723, No Iterations 3
time step continuity errors : sum local = 2.32383, global = 0.177156, cumulative = 0.6668
smoothSolver:  Solving for omega, Initial residual = 0.00543418, Final residual = 0.000425472, No Iterations 3
smoothSolver:  Solving for k, Initial residual = 0.110752, Final residual = 0.00616197, No Iterations 3
ExecutionTime = 5.63 s  ClockTime = 6 s

Time = 4

smoothSolver:  Solving for Ux, Initial residual = 0.0286465, Final residual = 0.00160816, No Iterations 4
smoothSolver:  Solving for Uy, Initial residual = 0.0628892, Final residual = 0.00328391, No Iterations 4
smoothSolver:  Solving for Uz, Initial residual = 0.0547774, Final residual = 0.00252478, No Iterations 4
GAMG:  Solving for p, Initial residual = 0.0177376, Final residual = 0.00131468, No Iterations 3
time step continuity errors : sum local = 2.53374, global = 0.260751, cumulative = 0.927551
smoothSolver:  Solving for omega, Initial residual = 0.00454121, Final residual = 0.000347717, No Iterations 3
smoothSolver:  Solving for k, Initial residual = 0.0611192, Final residual = 0.00399163, No Iterations 3
ExecutionTime = 6.65 s  ClockTime = 7 s

Time = 5

smoothSolver:  Solving for Ux, Initial residual = 0.016142, Final residual = 0.00160607, No Iterations 3
smoothSolver:  Solving for Uy, Initial residual = 0.0380772, Final residual = 0.00360874, No Iterations 3
smoothSolver:  Solving for Uz, Initial residual = 0.0304677, Final residual = 0.00303821, No Iterations 3
GAMG:  Solving for p, Initial residual = 0.018931, Final residual = 0.00149277, No Iterations 3
time step continuity errors : sum local = 2.40931, global = -0.0978359, cumulative = 0.829715
smoothSolver:  Solving for omega, Initial residual = 0.0036598, Final residual = 0.000277819, No Iterations 3
smoothSolver:  Solving for k, Initial residual = 0.0440025, Final residual = 0.00326927, No Iterations 3
ExecutionTime = 7.63 s  ClockTime = 8 s

Time = 6

smoothSolver:  Solving for Ux, Initial residual = 0.0214434, Final residual = 0.000969708, No Iterations 4
smoothSolver:  Solving for Uy, Initial residual = 0.0464183, Final residual = 0.00462212, No Iterations 3
smoothSolver:  Solving for Uz, Initial residual = 0.0323616, Final residual = 0.00177673, No Iterations 4
GAMG:  Solving for p, Initial residual = 0.021233, Final residual = 0.00199894, No Iterations 2
time step continuity errors : sum local = 2.64514, global = -0.554374, cumulative = 0.275341
smoothSolver:  Solving for omega, Initial residual = 0.00312623, Final residual = 0.000232005, No Iterations 3
smoothSolver:  Solving for k, Initial residual = 0.0375725, Final residual = 0.00291194, No Iterations 3
ExecutionTime = 8.6 s  ClockTime = 9 s

Time = 7

smoothSolver:  Solving for Ux, Initial residual = 0.0245928, Final residual = 0.00120948, No Iterations 4
smoothSolver:  Solving for Uy, Initial residual = 0.0447577, Final residual = 0.00220597, No Iterations 4
smoothSolver:  Solving for Uz, Initial residual = 0.0318215, Final residual = 0.00188925, No Iterations 4
GAMG:  Solving for p, Initial residual = 0.0238181, Final residual = 0.00216909, No Iterations 3
time step continuity errors : sum local = 2.40117, global = -0.240171, cumulative = 0.0351701
smoothSolver:  Solving for omega, Initial residual = 0.00278803, Final residual = 0.000203905, No Iterations 3
smoothSolver:  Solving for k, Initial residual = 0.0340276, Final residual = 0.00265706, No Iterations 3
ExecutionTime = 9.61 s  ClockTime = 10 s

Time = 8

smoothSolver:  Solving for Ux, Initial residual = 0.0221577, Final residual = 0.00121368, No Iterations 4
smoothSolver:  Solving for Uy, Initial residual = 0.0345734, Final residual = 0.00158841, No Iterations 4
smoothSolver:  Solving for Uz, Initial residual = 0.0230307, Final residual = 0.0011707, No Iterations 4
GAMG:  Solving for p, Initial residual = 0.0260537, Final residual = 0.00243456, No Iterations 3
time step continuity errors : sum local = 2.13292, global = -0.284182, cumulative = -0.249012
smoothSolver:  Solving for omega, Initial residual = 0.00254009, Final residual = 0.000183984, No Iterations 3
smoothSolver:  Solving for k, Initial residual = 0.0312497, Final residual = 0.00247207, No Iterations 3
ExecutionTime = 10.68 s  ClockTime = 11 s

Time = 9

smoothSolver:  Solving for Ux, Initial residual = 0.0185123, Final residual = 0.000972467, No Iterations 4
smoothSolver:  Solving for Uy, Initial residual = 0.0377658, Final residual = 0.00189353, No Iterations 4
smoothSolver:  Solving for Uz, Initial residual = 0.025207, Final residual = 0.00242019, No Iterations 3
GAMG:  Solving for p, Initial residual = 0.0286412, Final residual = 0.00163302, No Iterations 3
time step continuity errors : sum local = 1.24745, global = -0.00464119, cumulative = -0.253653
smoothSolver:  Solving for omega, Initial residual = 0.00228734, Final residual = 0.00016495, No Iterations 3
smoothSolver:  Solving for k, Initial residual = 0.0294175, Final residual = 0.00235599, No Iterations 3
ExecutionTime = 11.73 s  ClockTime = 12 s

Time = 10

smoothSolver:  Solving for Ux, Initial residual = 0.016668, Final residual = 0.000860669, No Iterations 4
smoothSolver:  Solving for Uy, Initial residual = 0.0361475, Final residual = 0.00191166, No Iterations 4
smoothSolver:  Solving for Uz, Initial residual = 0.0258862, Final residual = 0.00124331, No Iterations 4
GAMG:  Solving for p, Initial residual = 0.0296635, Final residual = 0.00210194, No Iterations 3
time step continuity errors : sum local = 1.51655, global = 0.235419, cumulative = -0.0182339
smoothSolver:  Solving for omega, Initial residual = 0.00223462, Final residual = 0.000163118, No Iterations 3
smoothSolver:  Solving for k, Initial residual = 0.0289606, Final residual = 0.00234271, No Iterations 3
ExecutionTime = 12.72 s  ClockTime = 13 s

Time = 11

smoothSolver:  Solving for Ux, Initial residual = 0.0145661, Final residual = 0.000768519, No Iterations 4
smoothSolver:  Solving for Uy, Initial residual = 0.027378, Final residual = 0.00140219, No Iterations 4
smoothSolver:  Solving for Uz, Initial residual = 0.020367, Final residual = 0.00106371, No Iterations 4
GAMG:  Solving for p, Initial residual = 0.027148, Final residual = 0.00264954, No Iterations 3
time step continuity errors : sum local = 1.88501, global = 0.173089, cumulative = 0.154855
smoothSolver:  Solving for omega, Initial residual = 0.0021867, Final residual = 0.000159887, No Iterations 3
smoothSolver:  Solving for k, Initial residual = 0.0283333, Final residual = 0.0023212, No Iterations 3
ExecutionTime = 13.73 s  ClockTime = 14 s

Time = 12

smoothSolver:  Solving for Ux, Initial residual = 0.0131135, Final residual = 0.000680305, No Iterations 4
smoothSolver:  Solving for Uy, Initial residual = 0.0212888, Final residual = 0.00207578, No Iterations 3
smoothSolver:  Solving for Uz, Initial residual = 0.0174678, Final residual = 0.000877274, No Iterations 4
GAMG:  Solving for p, Initial residual = 0.0241084, Final residual = 0.00191641, No Iterations 3
time step continuity errors : sum local = 1.41359, global = 0.11329, cumulative = 0.268145
smoothSolver:  Solving for omega, Initial residual = 0.00205087, Final residual = 0.000147975, No Iterations 3
smoothSolver:  Solving for k, Initial residual = 0.027313, Final residual = 0.00223572, No Iterations 3
ExecutionTime = 14.76 s  ClockTime = 15 s

Time = 13

smoothSolver:  Solving for Ux, Initial residual = 0.0131399, Final residual = 0.00068322, No Iterations 4
smoothSolver:  Solving for Uy, Initial residual = 0.0211139, Final residual = 0.000968871, No Iterations 4
smoothSolver:  Solving for Uz, Initial residual = 0.0191346, Final residual = 0.00108485, No Iterations 4
GAMG:  Solving for p, Initial residual = 0.0231689, Final residual = 0.002199, No Iterations 2
time step continuity errors : sum local = 1.64224, global = -0.267462, cumulative = 0.000682671
smoothSolver:  Solving for omega, Initial residual = 0.00194893, Final residual = 0.000136021, No Iterations 3
smoothSolver:  Solving for k, Initial residual = 0.0262241, Final residual = 0.00211058, No Iterations 3
ExecutionTime = 15.73 s  ClockTime = 16 s

Time = 14

smoothSolver:  Solving for Ux, Initial residual = 0.0131976, Final residual = 0.00070161, No Iterations 4
smoothSolver:  Solving for Uy, Initial residual = 0.0202854, Final residual = 0.000964398, No Iterations 4
smoothSolver:  Solving for Uz, Initial residual = 0.0179606, Final residual = 0.00106222, No Iterations 4
GAMG:  Solving for p, Initial residual = 0.0231406, Final residual = 0.00170189, No Iterations 3
time step continuity errors : sum local = 1.20882, global = -0.156971, cumulative = -0.156288
smoothSolver:  Solving for omega, Initial residual = 0.00180779, Final residual = 0.000124104, No Iterations 3
smoothSolver:  Solving for k, Initial residual = 0.0258735, Final residual = 0.00201677, No Iterations 3
ExecutionTime = 16.69 s  ClockTime = 17 s

Time = 15

smoothSolver:  Solving for Ux, Initial residual = 0.0138111, Final residual = 0.000765873, No Iterations 4
smoothSolver:  Solving for Uy, Initial residual = 0.0206212, Final residual = 0.00102018, No Iterations 4
smoothSolver:  Solving for Uz, Initial residual = 0.0184084, Final residual = 0.00105362, No Iterations 4
GAMG:  Solving for p, Initial residual = 0.0236863, Final residual = 0.00170445, No Iterations 3
time step continuity errors : sum local = 1.10148, global = -0.0796836, cumulative = -0.235972
smoothSolver:  Solving for omega, Initial residual = 0.00166784, Final residual = 0.000114114, No Iterations 3
smoothSolver:  Solving for k, Initial residual = 0.0257809, Final residual = 0.00192901, No Iterations 3
ExecutionTime = 17.7 s  ClockTime = 18 s

Time = 16

smoothSolver:  Solving for Ux, Initial residual = 0.0146369, Final residual = 0.000860544, No Iterations 4
smoothSolver:  Solving for Uy, Initial residual = 0.0222719, Final residual = 0.00118426, No Iterations 4
smoothSolver:  Solving for Uz, Initial residual = 0.0207787, Final residual = 0.00116464, No Iterations 4
GAMG:  Solving for p, Initial residual = 0.0268786, Final residual = 0.00253345, No Iterations 2
time step continuity errors : sum local = 1.41158, global = -0.128237, cumulative = -0.364209
smoothSolver:  Solving for omega, Initial residual = 0.00156518, Final residual = 0.000105947, No Iterations 3
smoothSolver:  Solving for k, Initial residual = 0.0259357, Final residual = 0.00191278, No Iterations 3
ExecutionTime = 18.68 s  ClockTime = 19 s

Time = 17

smoothSolver:  Solving for Ux, Initial residual = 0.0150113, Final residual = 0.000898287, No Iterations 4
smoothSolver:  Solving for Uy, Initial residual = 0.0218643, Final residual = 0.00118709, No Iterations 4
smoothSolver:  Solving for Uz, Initial residual = 0.0205144, Final residual = 0.00118659, No Iterations 4
GAMG:  Solving for p, Initial residual = 0.0286695, Final residual = 0.00259466, No Iterations 2
time step continuity errors : sum local = 1.30683, global = 0.00394575, cumulative = -0.360263
smoothSolver:  Solving for omega, Initial residual = 0.00148059, Final residual = 0.000100278, No Iterations 3
smoothSolver:  Solving for k, Initial residual = 0.026378, Final residual = 0.00192466, No Iterations 3
ExecutionTime = 19.71 s  ClockTime = 20 s

Time = 18

smoothSolver:  Solving for Ux, Initial residual = 0.0151007, Final residual = 0.000903539, No Iterations 4
smoothSolver:  Solving for Uy, Initial residual = 0.0209191, Final residual = 0.00110873, No Iterations 4
smoothSolver:  Solving for Uz, Initial residual = 0.0196279, Final residual = 0.00115696, No Iterations 4
GAMG:  Solving for p, Initial residual = 0.0288291, Final residual = 0.00277856, No Iterations 2
time step continuity errors : sum local = 1.31942, global = 0.0735917, cumulative = -0.286672
smoothSolver:  Solving for omega, Initial residual = 0.00143589, Final residual = 9.49453e-05, No Iterations 3
smoothSolver:  Solving for k, Initial residual = 0.0268206, Final residual = 0.00195527, No Iterations 3
ExecutionTime = 20.74 s  ClockTime = 21 s

Time = 19

smoothSolver:  Solving for Ux, Initial residual = 0.0155297, Final residual = 0.000923383, No Iterations 4
smoothSolver:  Solving for Uy, Initial residual = 0.0201348, Final residual = 0.00104122, No Iterations 4
smoothSolver:  Solving for Uz, Initial residual = 0.0194276, Final residual = 0.0011447, No Iterations 4
GAMG:  Solving for p, Initial residual = 0.0288603, Final residual = 0.00271786, No Iterations 2
time step continuity errors : sum local = 1.24622, global = -0.0069865, cumulative = -0.293658
smoothSolver:  Solving for omega, Initial residual = 0.00137254, Final residual = 8.93074e-05, No Iterations 3
smoothSolver:  Solving for k, Initial residual = 0.0267959, Final residual = 0.00197347, No Iterations 3
ExecutionTime = 21.76 s  ClockTime = 22 s

Time = 20

smoothSolver:  Solving for Ux, Initial residual = 0.0162851, Final residual = 0.000965588, No Iterations 4
smoothSolver:  Solving for Uy, Initial residual = 0.019544, Final residual = 0.000985311, No Iterations 4
smoothSolver:  Solving for Uz, Initial residual = 0.0200403, Final residual = 0.00117452, No Iterations 4
GAMG:  Solving for p, Initial residual = 0.0292501, Final residual = 0.00255913, No Iterations 2
time step continuity errors : sum local = 1.1436, global = -0.15798, cumulative = -0.451638
smoothSolver:  Solving for omega, Initial residual = 0.00133053, Final residual = 8.55235e-05, No Iterations 3
smoothSolver:  Solving for k, Initial residual = 0.0273136, Final residual = 0.0019855, No Iterations 3
ExecutionTime = 22.78 s  ClockTime = 23 s

Time = 21

smoothSolver:  Solving for Ux, Initial residual = 0.0171529, Final residual = 0.00101248, No Iterations 4
smoothSolver:  Solving for Uy, Initial residual = 0.0192035, Final residual = 0.000948407, No Iterations 4
smoothSolver:  Solving for Uz, Initial residual = 0.0211255, Final residual = 0.00124128, No Iterations 4
GAMG:  Solving for p, Initial residual = 0.0298923, Final residual = 0.00266009, No Iterations 2
time step continuity errors : sum local = 1.16311, global = -0.288866, cumulative = -0.740504
smoothSolver:  Solving for omega, Initial residual = 0.00126748, Final residual = 8.19165e-05, No Iterations 3
smoothSolver:  Solving for k, Initial residual = 0.0273273, Final residual = 0.00200388, No Iterations 3
ExecutionTime = 23.79 s  ClockTime = 24 s

Time = 22

smoothSolver:  Solving for Ux, Initial residual = 0.0178869, Final residual = 0.00105681, No Iterations 4
smoothSolver:  Solving for Uy, Initial residual = 0.0193612, Final residual = 0.00094946, No Iterations 4
smoothSolver:  Solving for Uz, Initial residual = 0.0225321, Final residual = 0.00132828, No Iterations 4
GAMG:  Solving for p, Initial residual = 0.0308606, Final residual = 0.00299452, No Iterations 2
time step continuity errors : sum local = 1.27735, global = -0.325588, cumulative = -1.06609
smoothSolver:  Solving for omega, Initial residual = 0.00119776, Final residual = 7.7436e-05, No Iterations 3
smoothSolver:  Solving for k, Initial residual = 0.0276157, Final residual = 0.00202273, No Iterations 3
ExecutionTime = 24.79 s  ClockTime = 25 s

Time = 23

smoothSolver:  Solving for Ux, Initial residual = 0.0186815, Final residual = 0.00110744, No Iterations 4
smoothSolver:  Solving for Uy, Initial residual = 0.0198933, Final residual = 0.000991024, No Iterations 4
smoothSolver:  Solving for Uz, Initial residual = 0.023946, Final residual = 0.00141933, No Iterations 4
GAMG:  Solving for p, Initial residual = 0.0333566, Final residual = 0.00210181, No Iterations 3
time step continuity errors : sum local = 0.863384, global = -0.0785854, cumulative = -1.14468
smoothSolver:  Solving for omega, Initial residual = 0.00113139, Final residual = 7.37337e-05, No Iterations 3
smoothSolver:  Solving for k, Initial residual = 0.0278489, Final residual = 0.00201033, No Iterations 3
ExecutionTime = 25.76 s  ClockTime = 26 s

Time = 24

smoothSolver:  Solving for Ux, Initial residual = 0.0201369, Final residual = 0.00122371, No Iterations 4
smoothSolver:  Solving for Uy, Initial residual = 0.0211919, Final residual = 0.00111027, No Iterations 4
smoothSolver:  Solving for Uz, Initial residual = 0.025283, Final residual = 0.00149521, No Iterations 4
GAMG:  Solving for p, Initial residual = 0.0380123, Final residual = 0.00322546, No Iterations 2
time step continuity errors : sum local = 1.19415, global = -0.14987, cumulative = -1.29455
smoothSolver:  Solving for omega, Initial residual = 0.00109785, Final residual = 7.25016e-05, No Iterations 3
smoothSolver:  Solving for k, Initial residual = 0.0284086, Final residual = 0.00206535, No Iterations 3
ExecutionTime = 26.72 s  ClockTime = 27 s

Time = 25

smoothSolver:  Solving for Ux, Initial residual = 0.0211953, Final residual = 0.00130135, No Iterations 4
smoothSolver:  Solving for Uy, Initial residual = 0.0214213, Final residual = 0.00114919, No Iterations 4
smoothSolver:  Solving for Uz, Initial residual = 0.0251805, Final residual = 0.00149462, No Iterations 4
GAMG:  Solving for p, Initial residual = 0.0411928, Final residual = 0.00316643, No Iterations 2
time step continuity errors : sum local = 1.10035, global = -0.098951, cumulative = -1.3935
smoothSolver:  Solving for omega, Initial residual = 0.00105407, Final residual = 7.09636e-05, No Iterations 3
smoothSolver:  Solving for k, Initial residual = 0.029169, Final residual = 0.00212006, No Iterations 3
ExecutionTime = 27.68 s  ClockTime = 28 s

Time = 26

smoothSolver:  Solving for Ux, Initial residual = 0.022102, Final residual = 0.00137145, No Iterations 4
smoothSolver:  Solving for Uy, Initial residual = 0.0214191, Final residual = 0.00114338, No Iterations 4
smoothSolver:  Solving for Uz, Initial residual = 0.0246531, Final residual = 0.00146395, No Iterations 4
GAMG:  Solving for p, Initial residual = 0.0443152, Final residual = 0.00305715, No Iterations 2
time step continuity errors : sum local = 1.00026, global = -0.0834391, cumulative = -1.47694
smoothSolver:  Solving for omega, Initial residual = 0.00101911, Final residual = 6.8741e-05, No Iterations 3
smoothSolver:  Solving for k, Initial residual = 0.0296521, Final residual = 0.00218686, No Iterations 3
ExecutionTime = 28.63 s  ClockTime = 29 s

Time = 27

smoothSolver:  Solving for Ux, Initial residual = 0.0228632, Final residual = 0.00141853, No Iterations 4
smoothSolver:  Solving for Uy, Initial residual = 0.0214447, Final residual = 0.00113018, No Iterations 4
smoothSolver:  Solving for Uz, Initial residual = 0.024445, Final residual = 0.00145494, No Iterations 4
GAMG:  Solving for p, Initial residual = 0.0472756, Final residual = 0.00301718, No Iterations 2
time step continuity errors : sum local = 0.95157, global = -0.145091, cumulative = -1.62203
smoothSolver:  Solving for omega, Initial residual = 0.000993169, Final residual = 6.75438e-05, No Iterations 3
smoothSolver:  Solving for k, Initial residual = 0.0300678, Final residual = 0.00229581, No Iterations 3
ExecutionTime = 29.59 s  ClockTime = 30 s

Time = 28

smoothSolver:  Solving for Ux, Initial residual = 0.0234011, Final residual = 0.00145332, No Iterations 4
smoothSolver:  Solving for Uy, Initial residual = 0.0215081, Final residual = 0.00113291, No Iterations 4
smoothSolver:  Solving for Uz, Initial residual = 0.0245966, Final residual = 0.00147565, No Iterations 4
GAMG:  Solving for p, Initial residual = 0.0501805, Final residual = 0.00335203, No Iterations 2
time step continuity errors : sum local = 1.0478, global = -0.221086, cumulative = -1.84311
smoothSolver:  Solving for omega, Initial residual = 0.000980072, Final residual = 6.64955e-05, No Iterations 3
smoothSolver:  Solving for k, Initial residual = 0.0308416, Final residual = 0.00244856, No Iterations 3
ExecutionTime = 30.61 s  ClockTime = 31 s

Time = 29

smoothSolver:  Solving for Ux, Initial residual = 0.023935, Final residual = 0.00149131, No Iterations 4
smoothSolver:  Solving for Uy, Initial residual = 0.0217476, Final residual = 0.00116009, No Iterations 4
smoothSolver:  Solving for Uz, Initial residual = 0.0250269, Final residual = 0.00150813, No Iterations 4
GAMG:  Solving for p, Initial residual = 0.0521522, Final residual = 0.00369414, No Iterations 2
time step continuity errors : sum local = 1.15916, global = -0.239003, cumulative = -2.08212
smoothSolver:  Solving for omega, Initial residual = 0.000947935, Final residual = 6.55763e-05, No Iterations 3
smoothSolver:  Solving for k, Initial residual = 0.0318119, Final residual = 0.00259772, No Iterations 3
ExecutionTime = 31.68 s  ClockTime = 32 s

Time = 30

smoothSolver:  Solving for Ux, Initial residual = 0.0245455, Final residual = 0.00154879, No Iterations 4
smoothSolver:  Solving for Uy, Initial residual = 0.0220746, Final residual = 0.00120976, No Iterations 4
smoothSolver:  Solving for Uz, Initial residual = 0.0253915, Final residual = 0.00153767, No Iterations 4
GAMG:  Solving for p, Initial residual = 0.0546736, Final residual = 0.00396514, No Iterations 2
time step continuity errors : sum local = 1.23515, global = -0.21698, cumulative = -2.2991
smoothSolver:  Solving for omega, Initial residual = 0.000915908, Final residual = 6.39768e-05, No Iterations 3
smoothSolver:  Solving for k, Initial residual = 0.0327576, Final residual = 0.00268868, No Iterations 3
ExecutionTime = 32.62 s  ClockTime = 33 s

Time = 31

smoothSolver:  Solving for Ux, Initial residual = 0.025261, Final residual = 0.00161702, No Iterations 4
smoothSolver:  Solving for Uy, Initial residual = 0.0224667, Final residual = 0.00124668, No Iterations 4
smoothSolver:  Solving for Uz, Initial residual = 0.0254747, Final residual = 0.00153413, No Iterations 4
GAMG:  Solving for p, Initial residual = 0.0589095, Final residual = 0.00413925, No Iterations 2
time step continuity errors : sum local = 1.23355, global = -0.183705, cumulative = -2.4828
smoothSolver:  Solving for omega, Initial residual = 0.000882831, Final residual = 6.1812e-05, No Iterations 3
smoothSolver:  Solving for k, Initial residual = 0.0334968, Final residual = 0.00269996, No Iterations 3
ExecutionTime = 33.52 s  ClockTime = 34 s

Time = 32

smoothSolver:  Solving for Ux, Initial residual = 0.025908, Final residual = 0.00167182, No Iterations 4
smoothSolver:  Solving for Uy, Initial residual = 0.0225945, Final residual = 0.00126324, No Iterations 4
smoothSolver:  Solving for Uz, Initial residual = 0.025098, Final residual = 0.0014869, No Iterations 4
GAMG:  Solving for p, Initial residual = 0.065163, Final residual = 0.00423595, No Iterations 2
time step continuity errors : sum local = 1.1538, global = -0.149562, cumulative = -2.63237
smoothSolver:  Solving for omega, Initial residual = 0.000862761, Final residual = 6.05162e-05, No Iterations 3
smoothSolver:  Solving for k, Initial residual = 0.0339946, Final residual = 0.00266748, No Iterations 3
ExecutionTime = 34.49 s  ClockTime = 35 s

Time = 33

smoothSolver:  Solving for Ux, Initial residual = 0.0263826, Final residual = 0.0017008, No Iterations 4
smoothSolver:  Solving for Uy, Initial residual = 0.022808, Final residual = 0.00126303, No Iterations 4
smoothSolver:  Solving for Uz, Initial residual = 0.0244076, Final residual = 0.00140387, No Iterations 4
GAMG:  Solving for p, Initial residual = 0.0718892, Final residual = 0.00408155, No Iterations 2
time step continuity errors : sum local = 1.03395, global = -0.113615, cumulative = -2.74598
smoothSolver:  Solving for omega, Initial residual = 0.000841188, Final residual = 5.81186e-05, No Iterations 3
smoothSolver:  Solving for k, Initial residual = 0.0342725, Final residual = 0.00261273, No Iterations 3
ExecutionTime = 35.52 s  ClockTime = 36 s

Time = 34

smoothSolver:  Solving for Ux, Initial residual = 0.0266546, Final residual = 0.00169579, No Iterations 4
smoothSolver:  Solving for Uy, Initial residual = 0.0229576, Final residual = 0.0012349, No Iterations 4
smoothSolver:  Solving for Uz, Initial residual = 0.023559, Final residual = 0.00132269, No Iterations 4
GAMG:  Solving for p, Initial residual = 0.0797669, Final residual = 0.00407079, No Iterations 2
time step continuity errors : sum local = 0.946051, global = -0.0874588, cumulative = -2.83344
smoothSolver:  Solving for omega, Initial residual = 0.000828325, Final residual = 5.71649e-05, No Iterations 3
smoothSolver:  Solving for k, Initial residual = 0.0354681, Final residual = 0.00267299, No Iterations 3
ExecutionTime = 36.52 s  ClockTime = 37 s

Time = 35

smoothSolver:  Solving for Ux, Initial residual = 0.0266768, Final residual = 0.00166378, No Iterations 4
smoothSolver:  Solving for Uy, Initial residual = 0.0226674, Final residual = 0.0012117, No Iterations 4
smoothSolver:  Solving for Uz, Initial residual = 0.0228739, Final residual = 0.0012626, No Iterations 4
GAMG:  Solving for p, Initial residual = 0.0850834, Final residual = 0.00424769, No Iterations 2
time step continuity errors : sum local = 0.933694, global = -0.0985635, cumulative = -2.932
smoothSolver:  Solving for omega, Initial residual = 0.000806491, Final residual = 5.59567e-05, No Iterations 3
smoothSolver:  Solving for k, Initial residual = 0.0362467, Final residual = 0.00269901, No Iterations 3
ExecutionTime = 37.55 s  ClockTime = 38 s

Time = 36

smoothSolver:  Solving for Ux, Initial residual = 0.0265457, Final residual = 0.00163716, No Iterations 4
smoothSolver:  Solving for Uy, Initial residual = 0.0222889, Final residual = 0.00119535, No Iterations 4
smoothSolver:  Solving for Uz, Initial residual = 0.0223562, Final residual = 0.00123488, No Iterations 4
GAMG:  Solving for p, Initial residual = 0.0892424, Final residual = 0.00437512, No Iterations 2
time step continuity errors : sum local = 0.927189, global = -0.151886, cumulative = -3.08389
smoothSolver:  Solving for omega, Initial residual = 0.000792097, Final residual = 5.63932e-05, No Iterations 3
smoothSolver:  Solving for k, Initial residual = 0.0372316, Final residual = 0.00284014, No Iterations 3
ExecutionTime = 38.53 s  ClockTime = 39 s

Time = 37

smoothSolver:  Solving for Ux, Initial residual = 0.0264159, Final residual = 0.00162243, No Iterations 4
smoothSolver:  Solving for Uy, Initial residual = 0.021981, Final residual = 0.00117104, No Iterations 4
smoothSolver:  Solving for Uz, Initial residual = 0.0219377, Final residual = 0.00122708, No Iterations 4
GAMG:  Solving for p, Initial residual = 0.093864, Final residual = 0.00449268, No Iterations 2
time step continuity errors : sum local = 0.932376, global = -0.210872, cumulative = -3.29476
smoothSolver:  Solving for omega, Initial residual = 0.000785295, Final residual = 5.74863e-05, No Iterations 3
smoothSolver:  Solving for k, Initial residual = 0.0380693, Final residual = 0.00308855, No Iterations 3
ExecutionTime = 39.58 s  ClockTime = 40 s

Time = 38

smoothSolver:  Solving for Ux, Initial residual = 0.0261328, Final residual = 0.0016101, No Iterations 4
smoothSolver:  Solving for Uy, Initial residual = 0.0215048, Final residual = 0.00115366, No Iterations 4
smoothSolver:  Solving for Uz, Initial residual = 0.021466, Final residual = 0.0012167, No Iterations 4
GAMG:  Solving for p, Initial residual = 0.0985338, Final residual = 0.00462546, No Iterations 2
time step continuity errors : sum local = 0.939169, global = -0.248286, cumulative = -3.54305
smoothSolver:  Solving for omega, Initial residual = 0.000786274, Final residual = 5.89819e-05, No Iterations 3
smoothSolver:  Solving for k, Initial residual = 0.0390015, Final residual = 0.00331478, No Iterations 3
ExecutionTime = 40.62 s  ClockTime = 41 s

Time = 39

smoothSolver:  Solving for Ux, Initial residual = 0.0257791, Final residual = 0.00159389, No Iterations 4
smoothSolver:  Solving for Uy, Initial residual = 0.0211834, Final residual = 0.0011536, No Iterations 4
smoothSolver:  Solving for Uz, Initial residual = 0.0209424, Final residual = 0.00119574, No Iterations 4
GAMG:  Solving for p, Initial residual = 0.103665, Final residual = 0.00469561, No Iterations 2
time step continuity errors : sum local = 0.932272, global = -0.256376, cumulative = -3.79942
smoothSolver:  Solving for omega, Initial residual = 0.000781142, Final residual = 5.98681e-05, No Iterations 3
smoothSolver:  Solving for k, Initial residual = 0.0399064, Final residual = 0.00353962, No Iterations 3
ExecutionTime = 41.65 s  ClockTime = 43 s

Time = 40

smoothSolver:  Solving for Ux, Initial residual = 0.0253171, Final residual = 0.00156914, No Iterations 4
smoothSolver:  Solving for Uy, Initial residual = 0.0208047, Final residual = 0.00114655, No Iterations 4
smoothSolver:  Solving for Uz, Initial residual = 0.0203343, Final residual = 0.00116991, No Iterations 4
GAMG:  Solving for p, Initial residual = 0.109843, Final residual = 0.00459834, No Iterations 2
time step continuity errors : sum local = 0.892868, global = -0.238629, cumulative = -4.03805
smoothSolver:  Solving for omega, Initial residual = 0.000773761, Final residual = 5.97158e-05, No Iterations 3
smoothSolver:  Solving for k, Initial residual = 0.0407995, Final residual = 0.00365555, No Iterations 3
ExecutionTime = 42.68 s  ClockTime = 44 s

Time = 41

smoothSolver:  Solving for Ux, Initial residual = 0.0247529, Final residual = 0.00154163, No Iterations 4
smoothSolver:  Solving for Uy, Initial residual = 0.020216, Final residual = 0.00112807, No Iterations 4
smoothSolver:  Solving for Uz, Initial residual = 0.0196635, Final residual = 0.00113705, No Iterations 4
GAMG:  Solving for p, Initial residual = 0.116759, Final residual = 0.00458875, No Iterations 2
time step continuity errors : sum local = 0.877728, global = -0.210221, cumulative = -4.24827
smoothSolver:  Solving for omega, Initial residual = 0.00076516, Final residual = 5.99085e-05, No Iterations 3
smoothSolver:  Solving for k, Initial residual = 0.0418221, Final residual = 0.00382301, No Iterations 3
ExecutionTime = 43.71 s  ClockTime = 45 s

Time = 42

smoothSolver:  Solving for Ux, Initial residual = 0.0242447, Final residual = 0.0015049, No Iterations 4
smoothSolver:  Solving for Uy, Initial residual = 0.0195243, Final residual = 0.00108421, No Iterations 4
smoothSolver:  Solving for Uz, Initial residual = 0.0188857, Final residual = 0.00109523, No Iterations 4
GAMG:  Solving for p, Initial residual = 0.121425, Final residual = 0.00484461, No Iterations 2
time step continuity errors : sum local = 0.916471, global = -0.170458, cumulative = -4.41873
smoothSolver:  Solving for omega, Initial residual = 0.000757789, Final residual = 5.87512e-05, No Iterations 3
smoothSolver:  Solving for k, Initial residual = 0.042625, Final residual = 0.00390753, No Iterations 3
ExecutionTime = 44.74 s  ClockTime = 46 s

Time = 43

smoothSolver:  Solving for Ux, Initial residual = 0.0236889, Final residual = 0.00146154, No Iterations 4
smoothSolver:  Solving for Uy, Initial residual = 0.0186939, Final residual = 0.00103266, No Iterations 4
smoothSolver:  Solving for Uz, Initial residual = 0.0180565, Final residual = 0.00104535, No Iterations 4
GAMG:  Solving for p, Initial residual = 0.123118, Final residual = 0.00510282, No Iterations 2
time step continuity errors : sum local = 0.958659, global = -0.133067, cumulative = -4.5518
smoothSolver:  Solving for omega, Initial residual = 0.000751947, Final residual = 5.75817e-05, No Iterations 3
smoothSolver:  Solving for k, Initial residual = 0.0430998, Final residual = 0.0039064, No Iterations 3
ExecutionTime = 45.77 s  ClockTime = 47 s

Time = 44

smoothSolver:  Solving for Ux, Initial residual = 0.0230913, Final residual = 0.00141844, No Iterations 4
smoothSolver:  Solving for Uy, Initial residual = 0.0178654, Final residual = 0.000988697, No Iterations 4
smoothSolver:  Solving for Uz, Initial residual = 0.0173817, Final residual = 0.000991517, No Iterations 4
GAMG:  Solving for p, Initial residual = 0.122384, Final residual = 0.00521692, No Iterations 2
time step continuity errors : sum local = 0.981788, global = -0.109363, cumulative = -4.66116
smoothSolver:  Solving for omega, Initial residual = 0.000740046, Final residual = 5.68151e-05, No Iterations 3
smoothSolver:  Solving for k, Initial residual = 0.0430924, Final residual = 0.00387025, No Iterations 3
ExecutionTime = 46.78 s  ClockTime = 48 s

Time = 45

smoothSolver:  Solving for Ux, Initial residual = 0.0224726, Final residual = 0.00137331, No Iterations 4
smoothSolver:  Solving for Uy, Initial residual = 0.0170908, Final residual = 0.000952077, No Iterations 4
smoothSolver:  Solving for Uz, Initial residual = 0.0167633, Final residual = 0.000937751, No Iterations 4
GAMG:  Solving for p, Initial residual = 0.122095, Final residual = 0.00506147, No Iterations 2
time step continuity errors : sum local = 0.959984, global = -0.0920636, cumulative = -4.75322
smoothSolver:  Solving for omega, Initial residual = 0.000731597, Final residual = 5.63063e-05, No Iterations 3
smoothSolver:  Solving for k, Initial residual = 0.0430381, Final residual = 0.00388394, No Iterations 3
ExecutionTime = 47.77 s  ClockTime = 49 s

Time = 46

smoothSolver:  Solving for Ux, Initial residual = 0.0218594, Final residual = 0.00133482, No Iterations 4
smoothSolver:  Solving for Uy, Initial residual = 0.016395, Final residual = 0.000915453, No Iterations 4
smoothSolver:  Solving for Uz, Initial residual = 0.0161417, Final residual = 0.000885371, No Iterations 4
GAMG:  Solving for p, Initial residual = 0.121282, Final residual = 0.00464937, No Iterations 2
time step continuity errors : sum local = 0.893592, global = -0.0594343, cumulative = -4.81266
smoothSolver:  Solving for omega, Initial residual = 0.000718939, Final residual = 5.41328e-05, No Iterations 3
smoothSolver:  Solving for k, Initial residual = 0.0430096, Final residual = 0.00378691, No Iterations 3
ExecutionTime = 48.8 s  ClockTime = 50 s

Time = 47

smoothSolver:  Solving for Ux, Initial residual = 0.021203, Final residual = 0.00128819, No Iterations 4
smoothSolver:  Solving for Uy, Initial residual = 0.0157647, Final residual = 0.000881505, No Iterations 4
smoothSolver:  Solving for Uz, Initial residual = 0.0154917, Final residual = 0.0008309, No Iterations 4
GAMG:  Solving for p, Initial residual = 0.121081, Final residual = 0.00434349, No Iterations 2
time step continuity errors : sum local = 0.854816, global = 0.0063313, cumulative = -4.80633
smoothSolver:  Solving for omega, Initial residual = 0.000711657, Final residual = 5.28702e-05, No Iterations 3
smoothSolver:  Solving for k, Initial residual = 0.0427438, Final residual = 0.003813, No Iterations 3
ExecutionTime = 49.82 s  ClockTime = 51 s

Time = 48

smoothSolver:  Solving for Ux, Initial residual = 0.0204638, Final residual = 0.00122865, No Iterations 4
smoothSolver:  Solving for Uy, Initial residual = 0.0152305, Final residual = 0.000843895, No Iterations 4
smoothSolver:  Solving for Uz, Initial residual = 0.0148287, Final residual = 0.000777474, No Iterations 4
GAMG:  Solving for p, Initial residual = 0.119273, Final residual = 0.00430288, No Iterations 2
time step continuity errors : sum local = 0.855273, global = 0.0694571, cumulative = -4.73687
smoothSolver:  Solving for omega, Initial residual = 0.000698746, Final residual = 5.05033e-05, No Iterations 3
smoothSolver:  Solving for k, Initial residual = 0.0419667, Final residual = 0.00373813, No Iterations 3
ExecutionTime = 50.8 s  ClockTime = 52 s

Time = 49

smoothSolver:  Solving for Ux, Initial residual = 0.019607, Final residual = 0.00115045, No Iterations 4
smoothSolver:  Solving for Uy, Initial residual = 0.0146929, Final residual = 0.000799716, No Iterations 4
smoothSolver:  Solving for Uz, Initial residual = 0.0141459, Final residual = 0.000724466, No Iterations 4
GAMG:  Solving for p, Initial residual = 0.113281, Final residual = 0.00426784, No Iterations 2
time step continuity errors : sum local = 0.866324, global = 0.0795326, cumulative = -4.65734
smoothSolver:  Solving for omega, Initial residual = 0.000683323, Final residual = 4.82892e-05, No Iterations 3
smoothSolver:  Solving for k, Initial residual = 0.0413531, Final residual = 0.00363413, No Iterations 3
ExecutionTime = 51.84 s  ClockTime = 53 s

Time = 50

smoothSolver:  Solving for Ux, Initial residual = 0.01877, Final residual = 0.00107209, No Iterations 4
smoothSolver:  Solving for Uy, Initial residual = 0.0140876, Final residual = 0.00075061, No Iterations 4
smoothSolver:  Solving for Uz, Initial residual = 0.0135319, Final residual = 0.000683711, No Iterations 4
GAMG:  Solving for p, Initial residual = 0.106162, Final residual = 0.00398115, No Iterations 2
time step continuity errors : sum local = 0.831328, global = 0.0531176, cumulative = -4.60422
smoothSolver:  Solving for omega, Initial residual = 0.000670279, Final residual = 4.66514e-05, No Iterations 3
smoothSolver:  Solving for k, Initial residual = 0.0405626, Final residual = 0.00351409, No Iterations 3
ExecutionTime = 52.87 s  ClockTime = 54 s

Time = 51

smoothSolver:  Solving for Ux, Initial residual = 0.0179076, Final residual = 0.000999034, No Iterations 4
smoothSolver:  Solving for Uy, Initial residual = 0.0134409, Final residual = 0.000704916, No Iterations 4
smoothSolver:  Solving for Uz, Initial residual = 0.0129384, Final residual = 0.00064996, No Iterations 4
GAMG:  Solving for p, Initial residual = 0.100204, Final residual = 0.00344791, No Iterations 2
time step continuity errors : sum local = 0.749025, global = 0.021288, cumulative = -4.58293
smoothSolver:  Solving for omega, Initial residual = 0.00064951, Final residual = 4.48993e-05, No Iterations 3
smoothSolver:  Solving for k, Initial residual = 0.0392344, Final residual = 0.00330319, No Iterations 3
ExecutionTime = 53.89 s  ClockTime = 55 s

Time = 52

smoothSolver:  Solving for Ux, Initial residual = 0.0170565, Final residual = 0.000933099, No Iterations 4
smoothSolver:  Solving for Uy, Initial residual = 0.0127286, Final residual = 0.00066207, No Iterations 4
smoothSolver:  Solving for Uz, Initial residual = 0.0123304, Final residual = 0.000616843, No Iterations 4
GAMG:  Solving for p, Initial residual = 0.0932249, Final residual = 0.00298458, No Iterations 2
time step continuity errors : sum local = 0.678086, global = 0.0160997, cumulative = -4.56683
smoothSolver:  Solving for omega, Initial residual = 0.000627815, Final residual = 4.40544e-05, No Iterations 3
smoothSolver:  Solving for k, Initial residual = 0.0378883, Final residual = 0.00313981, No Iterations 3
ExecutionTime = 54.85 s  ClockTime = 56 s

Time = 53

smoothSolver:  Solving for Ux, Initial residual = 0.0162239, Final residual = 0.000873869, No Iterations 4
smoothSolver:  Solving for Uy, Initial residual = 0.0120371, Final residual = 0.000628749, No Iterations 4
smoothSolver:  Solving for Uz, Initial residual = 0.0117002, Final residual = 0.000586095, No Iterations 4
GAMG:  Solving for p, Initial residual = 0.0873429, Final residual = 0.00281399, No Iterations 2
time step continuity errors : sum local = 0.662061, global = 0.0240298, cumulative = -4.5428
smoothSolver:  Solving for omega, Initial residual = 0.000613147, Final residual = 4.33103e-05, No Iterations 3
smoothSolver:  Solving for k, Initial residual = 0.0369502, Final residual = 0.00306468, No Iterations 3
ExecutionTime = 55.82 s  ClockTime = 57 s

Time = 54

smoothSolver:  Solving for Ux, Initial residual = 0.0154208, Final residual = 0.000818099, No Iterations 4
smoothSolver:  Solving for Uy, Initial residual = 0.0114344, Final residual = 0.000600481, No Iterations 4
smoothSolver:  Solving for Uz, Initial residual = 0.0110719, Final residual = 0.000551193, No Iterations 4
GAMG:  Solving for p, Initial residual = 0.0807618, Final residual = 0.00270075, No Iterations 2
time step continuity errors : sum local = 0.642591, global = 0.0188698, cumulative = -4.52393
smoothSolver:  Solving for omega, Initial residual = 0.000590944, Final residual = 4.20156e-05, No Iterations 3
smoothSolver:  Solving for k, Initial residual = 0.0352119, Final residual = 0.00293581, No Iterations 3
ExecutionTime = 56.76 s  ClockTime = 58 s

Time = 55

smoothSolver:  Solving for Ux, Initial residual = 0.0146369, Final residual = 0.000763523, No Iterations 4
smoothSolver:  Solving for Uy, Initial residual = 0.0108581, Final residual = 0.000574248, No Iterations 4
smoothSolver:  Solving for Uz, Initial residual = 0.0104379, Final residual = 0.000507676, No Iterations 4
GAMG:  Solving for p, Initial residual = 0.0737264, Final residual = 0.00250249, No Iterations 2
time step continuity errors : sum local = 0.601106, global = 0.0165167, cumulative = -4.50742
smoothSolver:  Solving for omega, Initial residual = 0.000566961, Final residual = 3.97357e-05, No Iterations 3
smoothSolver:  Solving for k, Initial residual = 0.0333957, Final residual = 0.00274547, No Iterations 3
ExecutionTime = 57.67 s  ClockTime = 59 s

Time = 56

smoothSolver:  Solving for Ux, Initial residual = 0.0137695, Final residual = 0.000710623, No Iterations 4
smoothSolver:  Solving for Uy, Initial residual = 0.0101811, Final residual = 0.000550551, No Iterations 4
smoothSolver:  Solving for Uz, Initial residual = 0.00980462, Final residual = 0.000458615, No Iterations 4
GAMG:  Solving for p, Initial residual = 0.0671718, Final residual = 0.00223022, No Iterations 2
time step continuity errors : sum local = 0.543486, global = 0.0203085, cumulative = -4.48711
smoothSolver:  Solving for omega, Initial residual = 0.000538636, Final residual = 3.68733e-05, No Iterations 3
smoothSolver:  Solving for k, Initial residual = 0.0314258, Final residual = 0.0025213, No Iterations 3
ExecutionTime = 58.65 s  ClockTime = 60 s

Time = 57

smoothSolver:  Solving for Ux, Initial residual = 0.0129266, Final residual = 0.000653774, No Iterations 4
smoothSolver:  Solving for Uy, Initial residual = 0.00946719, Final residual = 0.000514635, No Iterations 4
smoothSolver:  Solving for Uz, Initial residual = 0.00915956, Final residual = 0.000905274, No Iterations 3
GAMG:  Solving for p, Initial residual = 0.0613958, Final residual = 0.00196685, No Iterations 2
time step continuity errors : sum local = 0.486672, global = 0.0343213, cumulative = -4.45279
smoothSolver:  Solving for omega, Initial residual = 0.000506755, Final residual = 3.42962e-05, No Iterations 3
smoothSolver:  Solving for k, Initial residual = 0.0292784, Final residual = 0.00231005, No Iterations 3
ExecutionTime = 59.57 s  ClockTime = 61 s

Time = 58

smoothSolver:  Solving for Ux, Initial residual = 0.0121081, Final residual = 0.000599552, No Iterations 4
smoothSolver:  Solving for Uy, Initial residual = 0.00876464, Final residual = 0.000469006, No Iterations 4
smoothSolver:  Solving for Uz, Initial residual = 0.00862728, Final residual = 0.000836002, No Iterations 3
GAMG:  Solving for p, Initial residual = 0.0577892, Final residual = 0.00184107, No Iterations 2
time step continuity errors : sum local = 0.460668, global = 0.0517923, cumulative = -4.40099
smoothSolver:  Solving for omega, Initial residual = 0.000478176, Final residual = 3.27546e-05, No Iterations 3
smoothSolver:  Solving for k, Initial residual = 0.0272088, Final residual = 0.00213497, No Iterations 3
ExecutionTime = 60.53 s  ClockTime = 62 s

Time = 59

smoothSolver:  Solving for Ux, Initial residual = 0.0113098, Final residual = 0.000554412, No Iterations 4
smoothSolver:  Solving for Uy, Initial residual = 0.00808531, Final residual = 0.000419976, No Iterations 4
smoothSolver:  Solving for Uz, Initial residual = 0.00807828, Final residual = 0.000781509, No Iterations 3
GAMG:  Solving for p, Initial residual = 0.0544855, Final residual = 0.00178381, No Iterations 2
time step continuity errors : sum local = 0.449446, global = 0.0734463, cumulative = -4.32755
smoothSolver:  Solving for omega, Initial residual = 0.000451293, Final residual = 3.0922e-05, No Iterations 3
smoothSolver:  Solving for k, Initial residual = 0.0252682, Final residual = 0.00195548, No Iterations 3
ExecutionTime = 61.51 s  ClockTime = 63 s

Time = 60

smoothSolver:  Solving for Ux, Initial residual = 0.0105744, Final residual = 0.000516741, No Iterations 4
smoothSolver:  Solving for Uy, Initial residual = 0.00750947, Final residual = 0.000377874, No Iterations 4
smoothSolver:  Solving for Uz, Initial residual = 0.00752414, Final residual = 0.000727029, No Iterations 3
GAMG:  Solving for p, Initial residual = 0.0514045, Final residual = 0.00175929, No Iterations 2
time step continuity errors : sum local = 0.446129, global = 0.10028, cumulative = -4.22727
smoothSolver:  Solving for omega, Initial residual = 0.000425498, Final residual = 2.90707e-05, No Iterations 3
smoothSolver:  Solving for k, Initial residual = 0.0235741, Final residual = 0.00178874, No Iterations 3
ExecutionTime = 62.47 s  ClockTime = 64 s

Time = 61

smoothSolver:  Solving for Ux, Initial residual = 0.00984728, Final residual = 0.000478784, No Iterations 4
smoothSolver:  Solving for Uy, Initial residual = 0.00697944, Final residual = 0.000344748, No Iterations 4
smoothSolver:  Solving for Uz, Initial residual = 0.00697057, Final residual = 0.000677216, No Iterations 3
GAMG:  Solving for p, Initial residual = 0.0486999, Final residual = 0.00172567, No Iterations 2
time step continuity errors : sum local = 0.44106, global = 0.121094, cumulative = -4.10617
smoothSolver:  Solving for omega, Initial residual = 0.000399359, Final residual = 2.7246e-05, No Iterations 3
smoothSolver:  Solving for k, Initial residual = 0.0221052, Final residual = 0.00168285, No Iterations 3
ExecutionTime = 63.42 s  ClockTime = 65 s

Time = 62

smoothSolver:  Solving for Ux, Initial residual = 0.0091305, Final residual = 0.000444779, No Iterations 4
smoothSolver:  Solving for Uy, Initial residual = 0.00652651, Final residual = 0.000317814, No Iterations 4
smoothSolver:  Solving for Uz, Initial residual = 0.00643493, Final residual = 0.000626801, No Iterations 3
GAMG:  Solving for p, Initial residual = 0.0466242, Final residual = 0.00169855, No Iterations 2
time step continuity errors : sum local = 0.437606, global = 0.124171, cumulative = -3.982
smoothSolver:  Solving for omega, Initial residual = 0.00037253, Final residual = 2.53066e-05, No Iterations 3
smoothSolver:  Solving for k, Initial residual = 0.0205817, Final residual = 0.00158273, No Iterations 3
ExecutionTime = 64.39 s  ClockTime = 66 s

Time = 63

smoothSolver:  Solving for Ux, Initial residual = 0.00847952, Final residual = 0.000415663, No Iterations 4
smoothSolver:  Solving for Uy, Initial residual = 0.00609936, Final residual = 0.000296592, No Iterations 4
smoothSolver:  Solving for Uz, Initial residual = 0.00595518, Final residual = 0.000580459, No Iterations 3
GAMG:  Solving for p, Initial residual = 0.0448723, Final residual = 0.00165989, No Iterations 2
time step continuity errors : sum local = 0.427137, global = 0.101649, cumulative = -3.88035
smoothSolver:  Solving for omega, Initial residual = 0.000351132, Final residual = 2.34042e-05, No Iterations 3
smoothSolver:  Solving for k, Initial residual = 0.0196612, Final residual = 0.00150267, No Iterations 3
ExecutionTime = 65.36 s  ClockTime = 67 s

Time = 64

smoothSolver:  Solving for Ux, Initial residual = 0.00788415, Final residual = 0.000386508, No Iterations 4
smoothSolver:  Solving for Uy, Initial residual = 0.00574163, Final residual = 0.000281942, No Iterations 4
smoothSolver:  Solving for Uz, Initial residual = 0.00551973, Final residual = 0.000536122, No Iterations 3
GAMG:  Solving for p, Initial residual = 0.0432608, Final residual = 0.00159374, No Iterations 2
time step continuity errors : sum local = 0.40087, global = 0.0535759, cumulative = -3.82678
smoothSolver:  Solving for omega, Initial residual = 0.000326803, Final residual = 2.1861e-05, No Iterations 3
smoothSolver:  Solving for k, Initial residual = 0.0186827, Final residual = 0.00141245, No Iterations 3
ExecutionTime = 66.3 s  ClockTime = 68 s

Time = 65

smoothSolver:  Solving for Ux, Initial residual = 0.00735275, Final residual = 0.000358535, No Iterations 4
smoothSolver:  Solving for Uy, Initial residual = 0.00542896, Final residual = 0.00026834, No Iterations 4
smoothSolver:  Solving for Uz, Initial residual = 0.00514657, Final residual = 0.000498097, No Iterations 3
GAMG:  Solving for p, Initial residual = 0.0411336, Final residual = 0.00150821, No Iterations 2
time step continuity errors : sum local = 0.368729, global = -0.00143554, cumulative = -3.82821
smoothSolver:  Solving for omega, Initial residual = 0.000304596, Final residual = 2.01499e-05, No Iterations 3
smoothSolver:  Solving for k, Initial residual = 0.0175943, Final residual = 0.00132297, No Iterations 3
ExecutionTime = 67.28 s  ClockTime = 69 s

Time = 66

smoothSolver:  Solving for Ux, Initial residual = 0.00687229, Final residual = 0.000334511, No Iterations 4
smoothSolver:  Solving for Uy, Initial residual = 0.00514495, Final residual = 0.000250325, No Iterations 4
smoothSolver:  Solving for Uz, Initial residual = 0.00481307, Final residual = 0.000470704, No Iterations 3
GAMG:  Solving for p, Initial residual = 0.0392749, Final residual = 0.00143509, No Iterations 2
time step continuity errors : sum local = 0.338533, global = -0.0371751, cumulative = -3.86539
smoothSolver:  Solving for omega, Initial residual = 0.000286014, Final residual = 1.86242e-05, No Iterations 3
smoothSolver:  Solving for k, Initial residual = 0.0169852, Final residual = 0.00124519, No Iterations 3
ExecutionTime = 68.29 s  ClockTime = 70 s

Time = 67

smoothSolver:  Solving for Ux, Initial residual = 0.00639921, Final residual = 0.00031373, No Iterations 4
smoothSolver:  Solving for Uy, Initial residual = 0.00485125, Final residual = 0.000229976, No Iterations 4
smoothSolver:  Solving for Uz, Initial residual = 0.00448627, Final residual = 0.000441636, No Iterations 3
GAMG:  Solving for p, Initial residual = 0.0376467, Final residual = 0.0013437, No Iterations 2
time step continuity errors : sum local = 0.303304, global = -0.0451544, cumulative = -3.91054
smoothSolver:  Solving for omega, Initial residual = 0.000263424, Final residual = 1.71845e-05, No Iterations 3
smoothSolver:  Solving for k, Initial residual = 0.0159219, Final residual = 0.00117767, No Iterations 3
ExecutionTime = 69.26 s  ClockTime = 71 s

Time = 68

smoothSolver:  Solving for Ux, Initial residual = 0.00597363, Final residual = 0.00029343, No Iterations 4
smoothSolver:  Solving for Uy, Initial residual = 0.00454379, Final residual = 0.000210983, No Iterations 4
smoothSolver:  Solving for Uz, Initial residual = 0.00419457, Final residual = 0.000417763, No Iterations 3
GAMG:  Solving for p, Initial residual = 0.0369199, Final residual = 0.00125354, No Iterations 2
time step continuity errors : sum local = 0.270058, global = -0.0352753, cumulative = -3.94582
smoothSolver:  Solving for omega, Initial residual = 0.000246993, Final residual = 1.6246e-05, No Iterations 3
smoothSolver:  Solving for k, Initial residual = 0.0149223, Final residual = 0.0011125, No Iterations 3
ExecutionTime = 70.22 s  ClockTime = 72 s

Time = 69

smoothSolver:  Solving for Ux, Initial residual = 0.00557018, Final residual = 0.000274943, No Iterations 4
smoothSolver:  Solving for Uy, Initial residual = 0.00424528, Final residual = 0.00019376, No Iterations 4
smoothSolver:  Solving for Uz, Initial residual = 0.00390087, Final residual = 0.000180153, No Iterations 4
GAMG:  Solving for p, Initial residual = 0.0359634, Final residual = 0.0012401, No Iterations 2
time step continuity errors : sum local = 0.257201, global = -0.0135223, cumulative = -3.95934
smoothSolver:  Solving for omega, Initial residual = 0.000231539, Final residual = 1.52094e-05, No Iterations 3
smoothSolver:  Solving for k, Initial residual = 0.0141038, Final residual = 0.00103026, No Iterations 3
ExecutionTime = 71.17 s  ClockTime = 72 s

Time = 70

smoothSolver:  Solving for Ux, Initial residual = 0.00520744, Final residual = 0.000259945, No Iterations 4
smoothSolver:  Solving for Uy, Initial residual = 0.00397778, Final residual = 0.000392835, No Iterations 3
smoothSolver:  Solving for Uz, Initial residual = 0.00353809, Final residual = 0.000353672, No Iterations 3
GAMG:  Solving for p, Initial residual = 0.0338002, Final residual = 0.00129117, No Iterations 2
time step continuity errors : sum local = 0.263036, global = 0.0139756, cumulative = -3.94536
smoothSolver:  Solving for omega, Initial residual = 0.000214864, Final residual = 1.43786e-05, No Iterations 3
smoothSolver:  Solving for k, Initial residual = 0.0132771, Final residual = 0.000959425, No Iterations 3
ExecutionTime = 72.1 s  ClockTime = 73 s

Time = 71

smoothSolver:  Solving for Ux, Initial residual = 0.00485906, Final residual = 0.000244513, No Iterations 4
smoothSolver:  Solving for Uy, Initial residual = 0.00378153, Final residual = 0.000372068, No Iterations 3
smoothSolver:  Solving for Uz, Initial residual = 0.00325505, Final residual = 0.000323799, No Iterations 3
GAMG:  Solving for p, Initial residual = 0.0311216, Final residual = 0.0013264, No Iterations 2
time step continuity errors : sum local = 0.269851, global = 0.0366301, cumulative = -3.90873
smoothSolver:  Solving for omega, Initial residual = 0.000199904, Final residual = 1.38784e-05, No Iterations 3
smoothSolver:  Solving for k, Initial residual = 0.0124942, Final residual = 0.000926614, No Iterations 3
ExecutionTime = 73.15 s  ClockTime = 74 s

Time = 72

smoothSolver:  Solving for Ux, Initial residual = 0.00454568, Final residual = 0.00023241, No Iterations 4
smoothSolver:  Solving for Uy, Initial residual = 0.00360197, Final residual = 0.000355902, No Iterations 3
smoothSolver:  Solving for Uz, Initial residual = 0.00301168, Final residual = 0.000141834, No Iterations 4
GAMG:  Solving for p, Initial residual = 0.0286526, Final residual = 0.00131069, No Iterations 2
time step continuity errors : sum local = 0.269122, global = 0.0512208, cumulative = -3.85751
smoothSolver:  Solving for omega, Initial residual = 0.000188529, Final residual = 1.34063e-05, No Iterations 3
smoothSolver:  Solving for k, Initial residual = 0.011879, Final residual = 0.000915272, No Iterations 3
ExecutionTime = 74.15 s  ClockTime = 76 s

Time = 73

smoothSolver:  Solving for Ux, Initial residual = 0.00427187, Final residual = 0.000223845, No Iterations 4
smoothSolver:  Solving for Uy, Initial residual = 0.00341268, Final residual = 0.000340774, No Iterations 3
smoothSolver:  Solving for Uz, Initial residual = 0.00277025, Final residual = 0.000132405, No Iterations 4
GAMG:  Solving for p, Initial residual = 0.0264967, Final residual = 0.00123989, No Iterations 2
time step continuity errors : sum local = 0.258927, global = 0.0505213, cumulative = -3.80699
smoothSolver:  Solving for omega, Initial residual = 0.000178158, Final residual = 1.28084e-05, No Iterations 3
smoothSolver:  Solving for k, Initial residual = 0.0114474, Final residual = 0.000913839, No Iterations 3
ExecutionTime = 75.15 s  ClockTime = 77 s

Time = 74

smoothSolver:  Solving for Ux, Initial residual = 0.00403621, Final residual = 0.000214134, No Iterations 4
smoothSolver:  Solving for Uy, Initial residual = 0.00322743, Final residual = 0.000153119, No Iterations 4
smoothSolver:  Solving for Uz, Initial residual = 0.00256977, Final residual = 0.000124993, No Iterations 4
GAMG:  Solving for p, Initial residual = 0.0247852, Final residual = 0.00115391, No Iterations 2
time step continuity errors : sum local = 0.246109, global = 0.0384488, cumulative = -3.76854
smoothSolver:  Solving for omega, Initial residual = 0.000169768, Final residual = 1.20183e-05, No Iterations 3
smoothSolver:  Solving for k, Initial residual = 0.0110142, Final residual = 0.000882915, No Iterations 3
ExecutionTime = 76.14 s  ClockTime = 78 s

Time = 75

smoothSolver:  Solving for Ux, Initial residual = 0.00379426, Final residual = 0.00020458, No Iterations 4
smoothSolver:  Solving for Uy, Initial residual = 0.00301233, Final residual = 0.000146922, No Iterations 4
smoothSolver:  Solving for Uz, Initial residual = 0.00241766, Final residual = 0.000118589, No Iterations 4
GAMG:  Solving for p, Initial residual = 0.0237497, Final residual = 0.00107198, No Iterations 2
time step continuity errors : sum local = 0.233814, global = 0.0194515, cumulative = -3.74909
smoothSolver:  Solving for omega, Initial residual = 0.000163894, Final residual = 1.12804e-05, No Iterations 3
smoothSolver:  Solving for k, Initial residual = 0.0108458, Final residual = 0.000859909, No Iterations 3
ExecutionTime = 77.18 s  ClockTime = 79 s

Time = 76

smoothSolver:  Solving for Ux, Initial residual = 0.00360022, Final residual = 0.000195715, No Iterations 4
smoothSolver:  Solving for Uy, Initial residual = 0.00282033, Final residual = 0.000141417, No Iterations 4
smoothSolver:  Solving for Uz, Initial residual = 0.00230021, Final residual = 0.000113133, No Iterations 4
GAMG:  Solving for p, Initial residual = 0.0232959, Final residual = 0.00101965, No Iterations 2
time step continuity errors : sum local = 0.226542, global = 0.00152014, cumulative = -3.74757
smoothSolver:  Solving for omega, Initial residual = 0.000157725, Final residual = 1.07505e-05, No Iterations 3
smoothSolver:  Solving for k, Initial residual = 0.0105857, Final residual = 0.000844827, No Iterations 3
ExecutionTime = 78.21 s  ClockTime = 80 s

Time = 77

smoothSolver:  Solving for Ux, Initial residual = 0.0034006, Final residual = 0.000187944, No Iterations 4
smoothSolver:  Solving for Uy, Initial residual = 0.00266109, Final residual = 0.000135818, No Iterations 4
smoothSolver:  Solving for Uz, Initial residual = 0.00219786, Final residual = 0.00010862, No Iterations 4
GAMG:  Solving for p, Initial residual = 0.0229155, Final residual = 0.000995058, No Iterations 2
time step continuity errors : sum local = 0.222107, global = -0.0130865, cumulative = -3.76066
smoothSolver:  Solving for omega, Initial residual = 0.000149591, Final residual = 1.05104e-05, No Iterations 3
smoothSolver:  Solving for k, Initial residual = 0.0102241, Final residual = 0.000839819, No Iterations 3
ExecutionTime = 79.25 s  ClockTime = 81 s

Time = 78

smoothSolver:  Solving for Ux, Initial residual = 0.00324627, Final residual = 0.000180076, No Iterations 4
smoothSolver:  Solving for Uy, Initial residual = 0.00252961, Final residual = 0.000130407, No Iterations 4
smoothSolver:  Solving for Uz, Initial residual = 0.00209695, Final residual = 0.000103403, No Iterations 4
GAMG:  Solving for p, Initial residual = 0.0227539, Final residual = 0.000957609, No Iterations 2
time step continuity errors : sum local = 0.209585, global = -0.0225345, cumulative = -3.78319
smoothSolver:  Solving for omega, Initial residual = 0.000142399, Final residual = 1.02493e-05, No Iterations 3
smoothSolver:  Solving for k, Initial residual = 0.0100126, Final residual = 0.000807709, No Iterations 3
ExecutionTime = 80.27 s  ClockTime = 82 s

Time = 79

smoothSolver:  Solving for Ux, Initial residual = 0.00311759, Final residual = 0.000170931, No Iterations 4
smoothSolver:  Solving for Uy, Initial residual = 0.00241971, Final residual = 0.000125993, No Iterations 4
smoothSolver:  Solving for Uz, Initial residual = 0.00199, Final residual = 9.76012e-05, No Iterations 4
GAMG:  Solving for p, Initial residual = 0.0224725, Final residual = 0.000898162, No Iterations 2
time step continuity errors : sum local = 0.190652, global = -0.0220413, cumulative = -3.80523
smoothSolver:  Solving for omega, Initial residual = 0.000134777, Final residual = 9.72435e-06, No Iterations 3
smoothSolver:  Solving for k, Initial residual = 0.00963158, Final residual = 0.000770818, No Iterations 3
ExecutionTime = 81.27 s  ClockTime = 83 s

Time = 80

smoothSolver:  Solving for Ux, Initial residual = 0.0029942, Final residual = 0.000162056, No Iterations 4
smoothSolver:  Solving for Uy, Initial residual = 0.0023026, Final residual = 0.000120234, No Iterations 4
smoothSolver:  Solving for Uz, Initial residual = 0.00188858, Final residual = 9.32598e-05, No Iterations 4
GAMG:  Solving for p, Initial residual = 0.0221877, Final residual = 0.000853688, No Iterations 2
time step continuity errors : sum local = 0.173886, global = -0.014147, cumulative = -3.81938
smoothSolver:  Solving for omega, Initial residual = 0.000129701, Final residual = 9.207e-06, No Iterations 3
smoothSolver:  Solving for k, Initial residual = 0.0094191, Final residual = 0.000742717, No Iterations 3
ExecutionTime = 82.2 s  ClockTime = 84 s

Time = 81

smoothSolver:  Solving for Ux, Initial residual = 0.00288303, Final residual = 0.000156132, No Iterations 4
smoothSolver:  Solving for Uy, Initial residual = 0.00217799, Final residual = 0.00011202, No Iterations 4
smoothSolver:  Solving for Uz, Initial residual = 0.00178536, Final residual = 8.93733e-05, No Iterations 4
GAMG:  Solving for p, Initial residual = 0.0223324, Final residual = 0.000879366, No Iterations 2
time step continuity errors : sum local = 0.171373, global = -0.00160428, cumulative = -3.82098
smoothSolver:  Solving for omega, Initial residual = 0.000123105, Final residual = 8.68031e-06, No Iterations 3
smoothSolver:  Solving for k, Initial residual = 0.00898126, Final residual = 0.000681717, No Iterations 3
ExecutionTime = 83.13 s  ClockTime = 85 s

Time = 82

smoothSolver:  Solving for Ux, Initial residual = 0.00275098, Final residual = 0.000149513, No Iterations 4
smoothSolver:  Solving for Uy, Initial residual = 0.00205943, Final residual = 0.000104582, No Iterations 4
smoothSolver:  Solving for Uz, Initial residual = 0.00168089, Final residual = 8.30821e-05, No Iterations 4
GAMG:  Solving for p, Initial residual = 0.0219216, Final residual = 0.000964672, No Iterations 2
time step continuity errors : sum local = 0.18273, global = 0.0112044, cumulative = -3.80978
smoothSolver:  Solving for omega, Initial residual = 0.000119172, Final residual = 8.36775e-06, No Iterations 3
smoothSolver:  Solving for k, Initial residual = 0.00863223, Final residual = 0.000633752, No Iterations 3
ExecutionTime = 84.12 s  ClockTime = 86 s

Time = 83

smoothSolver:  Solving for Ux, Initial residual = 0.00262507, Final residual = 0.000142804, No Iterations 4
smoothSolver:  Solving for Uy, Initial residual = 0.00196082, Final residual = 9.83758e-05, No Iterations 4
smoothSolver:  Solving for Uz, Initial residual = 0.00158303, Final residual = 7.7074e-05, No Iterations 4
GAMG:  Solving for p, Initial residual = 0.020637, Final residual = 0.00097883, No Iterations 2
time step continuity errors : sum local = 0.18322, global = 0.0203738, cumulative = -3.78941
smoothSolver:  Solving for omega, Initial residual = 0.000112602, Final residual = 8.20637e-06, No Iterations 3
smoothSolver:  Solving for k, Initial residual = 0.00801531, Final residual = 0.0006003, No Iterations 3
ExecutionTime = 85.13 s  ClockTime = 87 s

Time = 84

smoothSolver:  Solving for Ux, Initial residual = 0.00251403, Final residual = 0.00013662, No Iterations 4
smoothSolver:  Solving for Uy, Initial residual = 0.00188358, Final residual = 9.35966e-05, No Iterations 4
smoothSolver:  Solving for Uz, Initial residual = 0.00149962, Final residual = 7.27287e-05, No Iterations 4
GAMG:  Solving for p, Initial residual = 0.0193603, Final residual = 0.000922866, No Iterations 2
time step continuity errors : sum local = 0.172398, global = 0.0213893, cumulative = -3.76802
smoothSolver:  Solving for omega, Initial residual = 0.000106922, Final residual = 7.97976e-06, No Iterations 3
smoothSolver:  Solving for k, Initial residual = 0.00753172, Final residual = 0.000581784, No Iterations 3
ExecutionTime = 86.12 s  ClockTime = 88 s

Time = 85

smoothSolver:  Solving for Ux, Initial residual = 0.00238489, Final residual = 0.000130476, No Iterations 4
smoothSolver:  Solving for Uy, Initial residual = 0.00182966, Final residual = 9.11006e-05, No Iterations 4
smoothSolver:  Solving for Uz, Initial residual = 0.00141625, Final residual = 6.94859e-05, No Iterations 4
GAMG:  Solving for p, Initial residual = 0.0182476, Final residual = 0.000834344, No Iterations 2
time step continuity errors : sum local = 0.157025, global = 0.0153466, cumulative = -3.75267
smoothSolver:  Solving for omega, Initial residual = 0.000101713, Final residual = 7.50377e-06, No Iterations 3
smoothSolver:  Solving for k, Initial residual = 0.00706759, Final residual = 0.000552466, No Iterations 3
ExecutionTime = 87.07 s  ClockTime = 88 s

Time = 86

smoothSolver:  Solving for Ux, Initial residual = 0.00226061, Final residual = 0.00012427, No Iterations 4
smoothSolver:  Solving for Uy, Initial residual = 0.001778, Final residual = 8.91455e-05, No Iterations 4
smoothSolver:  Solving for Uz, Initial residual = 0.00135436, Final residual = 6.67212e-05, No Iterations 4
GAMG:  Solving for p, Initial residual = 0.0173569, Final residual = 0.000764569, No Iterations 2
time step continuity errors : sum local = 0.145821, global = 0.00511146, cumulative = -3.74756
smoothSolver:  Solving for omega, Initial residual = 9.74934e-05, Final residual = 7.01755e-06, No Iterations 3
smoothSolver:  Solving for k, Initial residual = 0.00665896, Final residual = 0.000523066, No Iterations 3
ExecutionTime = 88.02 s  ClockTime = 89 s

Time = 87

smoothSolver:  Solving for Ux, Initial residual = 0.00213596, Final residual = 0.000117902, No Iterations 4
smoothSolver:  Solving for Uy, Initial residual = 0.00171113, Final residual = 8.78197e-05, No Iterations 4
smoothSolver:  Solving for Uz, Initial residual = 0.00129814, Final residual = 6.43421e-05, No Iterations 4
GAMG:  Solving for p, Initial residual = 0.016409, Final residual = 0.000743153, No Iterations 2
time step continuity errors : sum local = 0.144192, global = -0.00540023, cumulative = -3.75296
smoothSolver:  Solving for omega, Initial residual = 9.42038e-05, Final residual = 6.54271e-06, No Iterations 3
smoothSolver:  Solving for k, Initial residual = 0.0064395, Final residual = 0.000504565, No Iterations 3
ExecutionTime = 89.01 s  ClockTime = 90 s

Time = 88

smoothSolver:  Solving for Ux, Initial residual = 0.00200555, Final residual = 0.000110747, No Iterations 4
smoothSolver:  Solving for Uy, Initial residual = 0.00163735, Final residual = 8.43411e-05, No Iterations 4
smoothSolver:  Solving for Uz, Initial residual = 0.00124362, Final residual = 6.17791e-05, No Iterations 4
GAMG:  Solving for p, Initial residual = 0.0157315, Final residual = 0.000735207, No Iterations 2
time step continuity errors : sum local = 0.144751, global = -0.0137194, cumulative = -3.76668
smoothSolver:  Solving for omega, Initial residual = 8.97586e-05, Final residual = 6.18624e-06, No Iterations 3
smoothSolver:  Solving for k, Initial residual = 0.00618486, Final residual = 0.000483737, No Iterations 3
ExecutionTime = 90 s  ClockTime = 91 s

Time = 89

smoothSolver:  Solving for Ux, Initial residual = 0.00190084, Final residual = 0.00010406, No Iterations 4
smoothSolver:  Solving for Uy, Initial residual = 0.00155863, Final residual = 8.05791e-05, No Iterations 4
smoothSolver:  Solving for Uz, Initial residual = 0.00118596, Final residual = 5.86e-05, No Iterations 4
GAMG:  Solving for p, Initial residual = 0.0151989, Final residual = 0.000710083, No Iterations 2
time step continuity errors : sum local = 0.140844, global = -0.0183388, cumulative = -3.78502
smoothSolver:  Solving for omega, Initial residual = 8.56366e-05, Final residual = 5.92899e-06, No Iterations 3
smoothSolver:  Solving for k, Initial residual = 0.00596861, Final residual = 0.000465079, No Iterations 3
ExecutionTime = 90.99 s  ClockTime = 92 s

Time = 90

smoothSolver:  Solving for Ux, Initial residual = 0.0018021, Final residual = 9.7781e-05, No Iterations 4
smoothSolver:  Solving for Uy, Initial residual = 0.00149119, Final residual = 7.77171e-05, No Iterations 4
smoothSolver:  Solving for Uz, Initial residual = 0.00112417, Final residual = 5.51065e-05, No Iterations 4
GAMG:  Solving for p, Initial residual = 0.0148791, Final residual = 0.000667607, No Iterations 2
time step continuity errors : sum local = 0.132202, global = -0.0173371, cumulative = -3.80235
smoothSolver:  Solving for omega, Initial residual = 8.05523e-05, Final residual = 5.61486e-06, No Iterations 3
smoothSolver:  Solving for k, Initial residual = 0.00565693, Final residual = 0.000433773, No Iterations 3
ExecutionTime = 92.03 s  ClockTime = 93 s

Time = 91

smoothSolver:  Solving for Ux, Initial residual = 0.00171524, Final residual = 9.17169e-05, No Iterations 4
smoothSolver:  Solving for Uy, Initial residual = 0.00142177, Final residual = 7.51696e-05, No Iterations 4
smoothSolver:  Solving for Uz, Initial residual = 0.00106734, Final residual = 5.16272e-05, No Iterations 4
GAMG:  Solving for p, Initial residual = 0.0144733, Final residual = 0.000590998, No Iterations 2
time step continuity errors : sum local = 0.115586, global = -0.0129774, cumulative = -3.81533
smoothSolver:  Solving for omega, Initial residual = 7.66862e-05, Final residual = 5.35485e-06, No Iterations 3
smoothSolver:  Solving for k, Initial residual = 0.00548431, Final residual = 0.000414796, No Iterations 3
ExecutionTime = 93.05 s  ClockTime = 95 s

Time = 92

smoothSolver:  Solving for Ux, Initial residual = 0.00162611, Final residual = 8.5813e-05, No Iterations 4
smoothSolver:  Solving for Uy, Initial residual = 0.00134178, Final residual = 7.11531e-05, No Iterations 4
smoothSolver:  Solving for Uz, Initial residual = 0.00100897, Final residual = 4.86514e-05, No Iterations 4
GAMG:  Solving for p, Initial residual = 0.0140966, Final residual = 0.000534968, No Iterations 2
time step continuity errors : sum local = 0.102546, global = -0.0081913, cumulative = -3.82352
smoothSolver:  Solving for omega, Initial residual = 7.30687e-05, Final residual = 5.13918e-06, No Iterations 3
smoothSolver:  Solving for k, Initial residual = 0.00529293, Final residual = 0.00039449, No Iterations 3
ExecutionTime = 94.06 s  ClockTime = 96 s

Time = 93

smoothSolver:  Solving for Ux, Initial residual = 0.00153864, Final residual = 8.19234e-05, No Iterations 4
smoothSolver:  Solving for Uy, Initial residual = 0.00125699, Final residual = 6.61253e-05, No Iterations 4
smoothSolver:  Solving for Uz, Initial residual = 0.000950551, Final residual = 4.53753e-05, No Iterations 4
GAMG:  Solving for p, Initial residual = 0.0139531, Final residual = 0.000547954, No Iterations 2
time step continuity errors : sum local = 0.102868, global = -0.00249657, cumulative = -3.82602
smoothSolver:  Solving for omega, Initial residual = 6.88202e-05, Final residual = 4.88545e-06, No Iterations 3
smoothSolver:  Solving for k, Initial residual = 0.00491068, Final residual = 0.000368319, No Iterations 3
ExecutionTime = 95.07 s  ClockTime = 97 s

Time = 94

smoothSolver:  Solving for Ux, Initial residual = 0.0014594, Final residual = 7.82002e-05, No Iterations 4
smoothSolver:  Solving for Uy, Initial residual = 0.00118435, Final residual = 6.10057e-05, No Iterations 4
smoothSolver:  Solving for Uz, Initial residual = 0.000894666, Final residual = 4.24397e-05, No Iterations 4
GAMG:  Solving for p, Initial residual = 0.0135479, Final residual = 0.000597681, No Iterations 2
time step continuity errors : sum local = 0.110571, global = 0.00482817, cumulative = -3.82119
smoothSolver:  Solving for omega, Initial residual = 6.58952e-05, Final residual = 4.65469e-06, No Iterations 3
smoothSolver:  Solving for k, Initial residual = 0.00468395, Final residual = 0.000350212, No Iterations 3
ExecutionTime = 96.07 s  ClockTime = 98 s

Time = 95

smoothSolver:  Solving for Ux, Initial residual = 0.00138572, Final residual = 7.33959e-05, No Iterations 4
smoothSolver:  Solving for Uy, Initial residual = 0.00112124, Final residual = 5.6129e-05, No Iterations 4
smoothSolver:  Solving for Uz, Initial residual = 0.000839331, Final residual = 3.94403e-05, No Iterations 4
GAMG:  Solving for p, Initial residual = 0.0128263, Final residual = 0.000600016, No Iterations 2
time step continuity errors : sum local = 0.110296, global = 0.0107779, cumulative = -3.81041
smoothSolver:  Solving for omega, Initial residual = 6.26584e-05, Final residual = 4.50081e-06, No Iterations 3
smoothSolver:  Solving for k, Initial residual = 0.00440863, Final residual = 0.000328026, No Iterations 3
ExecutionTime = 97.08 s  ClockTime = 99 s

Time = 96

smoothSolver:  Solving for Ux, Initial residual = 0.00130398, Final residual = 6.85211e-05, No Iterations 4
smoothSolver:  Solving for Uy, Initial residual = 0.00106176, Final residual = 5.16963e-05, No Iterations 4
smoothSolver:  Solving for Uz, Initial residual = 0.000790004, Final residual = 3.71492e-05, No Iterations 4
GAMG:  Solving for p, Initial residual = 0.0119422, Final residual = 0.000550844, No Iterations 2
time step continuity errors : sum local = 0.101209, global = 0.0136606, cumulative = -3.79675
smoothSolver:  Solving for omega, Initial residual = 6.0343e-05, Final residual = 4.31235e-06, No Iterations 3
smoothSolver:  Solving for k, Initial residual = 0.00422877, Final residual = 0.000312195, No Iterations 3
ExecutionTime = 98.05 s  ClockTime = 100 s

Time = 97

smoothSolver:  Solving for Ux, Initial residual = 0.00123633, Final residual = 6.44162e-05, No Iterations 4
smoothSolver:  Solving for Uy, Initial residual = 0.00101591, Final residual = 4.82455e-05, No Iterations 4
smoothSolver:  Solving for Uz, Initial residual = 0.000750648, Final residual = 3.52357e-05, No Iterations 4
GAMG:  Solving for p, Initial residual = 0.0112317, Final residual = 0.00047253, No Iterations 2
time step continuity errors : sum local = 0.0872462, global = 0.012496, cumulative = -3.78426
smoothSolver:  Solving for omega, Initial residual = 5.63748e-05, Final residual = 4.04934e-06, No Iterations 3
smoothSolver:  Solving for k, Initial residual = 0.00391202, Final residual = 0.000291771, No Iterations 3
ExecutionTime = 99.01 s  ClockTime = 100 s

Time = 98

smoothSolver:  Solving for Ux, Initial residual = 0.00116208, Final residual = 5.98293e-05, No Iterations 4
smoothSolver:  Solving for Uy, Initial residual = 0.000973871, Final residual = 4.63724e-05, No Iterations 4
smoothSolver:  Solving for Uz, Initial residual = 0.000714575, Final residual = 3.34369e-05, No Iterations 4
GAMG:  Solving for p, Initial residual = 0.0106248, Final residual = 0.000414984, No Iterations 2
time step continuity errors : sum local = 0.0773311, global = 0.00924278, cumulative = -3.77501
smoothSolver:  Solving for omega, Initial residual = 5.36292e-05, Final residual = 3.73072e-06, No Iterations 3
smoothSolver:  Solving for k, Initial residual = 0.00367021, Final residual = 0.000271635, No Iterations 3
ExecutionTime = 100.03 s  ClockTime = 102 s

Time = 99

smoothSolver:  Solving for Ux, Initial residual = 0.00107569, Final residual = 5.46355e-05, No Iterations 4
smoothSolver:  Solving for Uy, Initial residual = 0.000929096, Final residual = 4.44601e-05, No Iterations 4
smoothSolver:  Solving for Uz, Initial residual = 0.000689506, Final residual = 3.22389e-05, No Iterations 4
GAMG:  Solving for p, Initial residual = 0.00990888, Final residual = 0.000408651, No Iterations 2
time step continuity errors : sum local = 0.0772288, global = 0.00515901, cumulative = -3.76986
smoothSolver:  Solving for omega, Initial residual = 5.04117e-05, Final residual = 3.45601e-06, No Iterations 3
smoothSolver:  Solving for k, Initial residual = 0.00341932, Final residual = 0.000254692, No Iterations 3
ExecutionTime = 101.03 s  ClockTime = 103 s

Time = 100

smoothSolver:  Solving for Ux, Initial residual = 0.000995138, Final residual = 5.02571e-05, No Iterations 4
smoothSolver:  Solving for Uy, Initial residual = 0.000881236, Final residual = 4.18472e-05, No Iterations 4
smoothSolver:  Solving for Uz, Initial residual = 0.000659764, Final residual = 3.0653e-05, No Iterations 4
GAMG:  Solving for p, Initial residual = 0.00925738, Final residual = 0.000419549, No Iterations 2
time step continuity errors : sum local = 0.0802397, global = 0.000109936, cumulative = -3.76975
smoothSolver:  Solving for omega, Initial residual = 4.82319e-05, Final residual = 3.29797e-06, No Iterations 3
[...]
smoothSolver:  Solving for Uy, Initial residual = 1.25106e-06, Final residual = 8.01854e-08, No Iterations 3
smoothSolver:  Solving for Uz, Initial residual = 9.91346e-07, Final residual = 6.49222e-08, No Iterations 3
GAMG:  Solving for p, Initial residual = 1.64538e-05, Final residual = 1.43464e-06, No Iterations 2
time step continuity errors : sum local = 0.000271448, global = 1.31207e-06, cumulative = -3.76391
smoothSolver:  Solving for omega, Initial residual = 6.75128e-07, Final residual = 2.84334e-08, No Iterations 3
smoothSolver:  Solving for k, Initial residual = 1.78303e-06, Final residual = 8.43782e-08, No Iterations 3
ExecutionTime = 272.46 s  ClockTime = 275 s

Time = 277

smoothSolver:  Solving for Ux, Initial residual = 1.69211e-06, Final residual = 1.18402e-07, No Iterations 3
smoothSolver:  Solving for Uy, Initial residual = 1.15997e-06, Final residual = 7.83959e-08, No Iterations 3
smoothSolver:  Solving for Uz, Initial residual = 9.16132e-07, Final residual = 6.38331e-08, No Iterations 3
GAMG:  Solving for p, Initial residual = 1.96272e-05, Final residual = 1.35682e-06, No Iterations 2
time step continuity errors : sum local = 0.000256742, global = -1.04503e-06, cumulative = -3.76391
smoothSolver:  Solving for omega, Initial residual = 6.76043e-07, Final residual = 2.93264e-08, No Iterations 3
smoothSolver:  Solving for k, Initial residual = 1.7789e-06, Final residual = 8.34086e-08, No Iterations 3
ExecutionTime = 273.4 s  ClockTime = 276 s

Time = 278

smoothSolver:  Solving for Ux, Initial residual = 1.96075e-06, Final residual = 1.17908e-07, No Iterations 3
smoothSolver:  Solving for Uy, Initial residual = 1.22051e-06, Final residual = 7.75691e-08, No Iterations 3
smoothSolver:  Solving for Uz, Initial residual = 9.64554e-07, Final residual = 6.32772e-08, No Iterations 3
GAMG:  Solving for p, Initial residual = 1.6189e-05, Final residual = 1.41856e-06, No Iterations 2
time step continuity errors : sum local = 0.000268404, global = 5.139e-06, cumulative = -3.76391
smoothSolver:  Solving for omega, Initial residual = 6.74203e-07, Final residual = 2.83768e-08, No Iterations 3
smoothSolver:  Solving for k, Initial residual = 1.74838e-06, Final residual = 8.21159e-08, No Iterations 3
ExecutionTime = 274.41 s  ClockTime = 277 s

Time = 279

smoothSolver:  Solving for Ux, Initial residual = 1.6614e-06, Final residual = 1.16248e-07, No Iterations 3
smoothSolver:  Solving for Uy, Initial residual = 1.1309e-06, Final residual = 7.65399e-08, No Iterations 3
smoothSolver:  Solving for Uz, Initial residual = 8.91326e-07, Final residual = 6.28643e-08, No Iterations 3
GAMG:  Solving for p, Initial residual = 1.93749e-05, Final residual = 1.34017e-06, No Iterations 2
time step continuity errors : sum local = 0.00025359, global = 1.4595e-06, cumulative = -3.7639
smoothSolver:  Solving for omega, Initial residual = 6.75035e-07, Final residual = 2.92464e-08, No Iterations 3
smoothSolver:  Solving for k, Initial residual = 1.74735e-06, Final residual = 8.034e-08, No Iterations 3
ExecutionTime = 275.36 s  ClockTime = 278 s

Time = 280

smoothSolver:  Solving for Ux, Initial residual = 1.92735e-06, Final residual = 1.16264e-07, No Iterations 3
smoothSolver:  Solving for Uy, Initial residual = 1.1932e-06, Final residual = 7.61322e-08, No Iterations 3
smoothSolver:  Solving for Uz, Initial residual = 9.41619e-07, Final residual = 6.19203e-08, No Iterations 3
GAMG:  Solving for p, Initial residual = 1.58884e-05, Final residual = 1.40376e-06, No Iterations 2
time step continuity errors : sum local = 0.000265603, global = 5.52445e-06, cumulative = -3.7639
smoothSolver:  Solving for omega, Initial residual = 6.72933e-07, Final residual = 2.83032e-08, No Iterations 3
smoothSolver:  Solving for k, Initial residual = 1.69803e-06, Final residual = 7.83659e-08, No Iterations 3
ExecutionTime = 276.27 s  ClockTime = 279 s

Time = 281

smoothSolver:  Solving for Ux, Initial residual = 1.62927e-06, Final residual = 1.14537e-07, No Iterations 3
smoothSolver:  Solving for Uy, Initial residual = 1.10609e-06, Final residual = 7.53406e-08, No Iterations 3
smoothSolver:  Solving for Uz, Initial residual = 8.68319e-07, Final residual = 6.09142e-08, No Iterations 3
GAMG:  Solving for p, Initial residual = 1.90216e-05, Final residual = 1.32091e-06, No Iterations 2
time step continuity errors : sum local = 0.000249945, global = -3.40007e-07, cumulative = -3.7639
smoothSolver:  Solving for omega, Initial residual = 6.73769e-07, Final residual = 2.9183e-08, No Iterations 3
smoothSolver:  Solving for k, Initial residual = 1.68146e-06, Final residual = 7.68579e-08, No Iterations 3
ExecutionTime = 277.17 s  ClockTime = 280 s

Time = 282

smoothSolver:  Solving for Ux, Initial residual = 1.89751e-06, Final residual = 1.14381e-07, No Iterations 3
smoothSolver:  Solving for Uy, Initial residual = 1.16653e-06, Final residual = 7.43534e-08, No Iterations 3
smoothSolver:  Solving for Uz, Initial residual = 9.17072e-07, Final residual = 6.01018e-08, No Iterations 3
GAMG:  Solving for p, Initial residual = 1.55241e-05, Final residual = 1.38158e-06, No Iterations 2
time step continuity errors : sum local = 0.000261408, global = 2.64806e-06, cumulative = -3.7639
smoothSolver:  Solving for omega, Initial residual = 6.71694e-07, Final residual = 2.82657e-08, No Iterations 3
smoothSolver:  Solving for k, Initial residual = 1.64206e-06, Final residual = 7.58047e-08, No Iterations 3
ExecutionTime = 278.06 s  ClockTime = 281 s

Time = 283

smoothSolver:  Solving for Ux, Initial residual = 1.60498e-06, Final residual = 1.13208e-07, No Iterations 3
smoothSolver:  Solving for Uy, Initial residual = 1.07831e-06, Final residual = 7.33846e-08, No Iterations 3
smoothSolver:  Solving for Uz, Initial residual = 8.44259e-07, Final residual = 5.93034e-08, No Iterations 3
GAMG:  Solving for p, Initial residual = 1.87335e-05, Final residual = 1.30392e-06, No Iterations 2
time step continuity errors : sum local = 0.000246732, global = -3.7675e-06, cumulative = -3.7639
smoothSolver:  Solving for omega, Initial residual = 6.72775e-07, Final residual = 2.9146e-08, No Iterations 3
smoothSolver:  Solving for k, Initial residual = 1.64463e-06, Final residual = 7.53275e-08, No Iterations 3
ExecutionTime = 278.95 s  ClockTime = 282 s

Time = 284

smoothSolver:  Solving for Ux, Initial residual = 1.87183e-06, Final residual = 1.12584e-07, No Iterations 3
smoothSolver:  Solving for Uy, Initial residual = 1.14052e-06, Final residual = 7.28007e-08, No Iterations 3
smoothSolver:  Solving for Uz, Initial residual = 8.95748e-07, Final residual = 5.90021e-08, No Iterations 3
GAMG:  Solving for p, Initial residual = 1.53173e-05, Final residual = 1.365e-06, No Iterations 2
time step continuity errors : sum local = 0.000258271, global = 1.73554e-07, cumulative = -3.7639
smoothSolver:  Solving for omega, Initial residual = 6.70797e-07, Final residual = 2.81998e-08, No Iterations 3
smoothSolver:  Solving for k, Initial residual = 1.61884e-06, Final residual = 7.39379e-08, No Iterations 3
ExecutionTime = 279.84 s  ClockTime = 282 s

Time = 285

smoothSolver:  Solving for Ux, Initial residual = 1.577e-06, Final residual = 1.11642e-07, No Iterations 3
smoothSolver:  Solving for Uy, Initial residual = 1.05282e-06, Final residual = 7.21272e-08, No Iterations 3
smoothSolver:  Solving for Uz, Initial residual = 8.23902e-07, Final residual = 5.81593e-08, No Iterations 3
GAMG:  Solving for p, Initial residual = 1.85005e-05, Final residual = 1.29088e-06, No Iterations 2
time step continuity errors : sum local = 0.000244264, global = -4.83598e-06, cumulative = -3.7639
smoothSolver:  Solving for omega, Initial residual = 6.71769e-07, Final residual = 2.90821e-08, No Iterations 3
smoothSolver:  Solving for k, Initial residual = 1.61425e-06, Final residual = 7.24485e-08, No Iterations 3
ExecutionTime = 280.73 s  ClockTime = 283 s

Time = 286

smoothSolver:  Solving for Ux, Initial residual = 1.84323e-06, Final residual = 1.11032e-07, No Iterations 3
smoothSolver:  Solving for Uy, Initial residual = 1.11764e-06, Final residual = 7.19029e-08, No Iterations 3
smoothSolver:  Solving for Uz, Initial residual = 8.76624e-07, Final residual = 5.75133e-08, No Iterations 3
GAMG:  Solving for p, Initial residual = 1.50225e-05, Final residual = 1.34795e-06, No Iterations 2
time step continuity errors : sum local = 0.000255045, global = 7.27538e-07, cumulative = -3.7639
smoothSolver:  Solving for omega, Initial residual = 6.69677e-07, Final residual = 2.81394e-08, No Iterations 3
smoothSolver:  Solving for k, Initial residual = 1.57006e-06, Final residual = 7.09897e-08, No Iterations 3
ExecutionTime = 281.62 s  ClockTime = 284 s

Time = 287

smoothSolver:  Solving for Ux, Initial residual = 1.54942e-06, Final residual = 1.09891e-07, No Iterations 3
smoothSolver:  Solving for Uy, Initial residual = 1.03068e-06, Final residual = 7.09693e-08, No Iterations 3
smoothSolver:  Solving for Uz, Initial residual = 8.04369e-07, Final residual = 5.65503e-08, No Iterations 3
GAMG:  Solving for p, Initial residual = 1.81919e-05, Final residual = 1.27009e-06, No Iterations 2
time step continuity errors : sum local = 0.000240329, global = -2.76774e-06, cumulative = -3.76391
smoothSolver:  Solving for omega, Initial residual = 6.70676e-07, Final residual = 2.90382e-08, No Iterations 3
smoothSolver:  Solving for k, Initial residual = 1.56385e-06, Final residual = 6.98693e-08, No Iterations 3
ExecutionTime = 282.51 s  ClockTime = 285 s

Time = 288

smoothSolver:  Solving for Ux, Initial residual = 1.81943e-06, Final residual = 1.09714e-07, No Iterations 3
smoothSolver:  Solving for Uy, Initial residual = 1.09494e-06, Final residual = 7.03604e-08, No Iterations 3
smoothSolver:  Solving for Uz, Initial residual = 8.57081e-07, Final residual = 5.61244e-08, No Iterations 3
GAMG:  Solving for p, Initial residual = 1.47475e-05, Final residual = 1.3313e-06, No Iterations 2
time step continuity errors : sum local = 0.000251893, global = 3.20315e-06, cumulative = -3.7639
smoothSolver:  Solving for omega, Initial residual = 6.68707e-07, Final residual = 2.81101e-08, No Iterations 3
smoothSolver:  Solving for k, Initial residual = 1.53161e-06, Final residual = 6.91682e-08, No Iterations 3
ExecutionTime = 283.4 s  ClockTime = 286 s

Time = 289

smoothSolver:  Solving for Ux, Initial residual = 1.52648e-06, Final residual = 1.08309e-07, No Iterations 3
smoothSolver:  Solving for Uy, Initial residual = 1.00819e-06, Final residual = 6.93436e-08, No Iterations 3
smoothSolver:  Solving for Uz, Initial residual = 7.86566e-07, Final residual = 5.56901e-08, No Iterations 3
GAMG:  Solving for p, Initial residual = 1.79895e-05, Final residual = 1.25249e-06, No Iterations 2
time step continuity errors : sum local = 0.000236999, global = -3.43374e-07, cumulative = -3.7639
smoothSolver:  Solving for omega, Initial residual = 6.69884e-07, Final residual = 2.89899e-08, No Iterations 3
smoothSolver:  Solving for k, Initial residual = 1.54051e-06, Final residual = 6.85485e-08, No Iterations 3
ExecutionTime = 284.3 s  ClockTime = 287 s

Time = 290

smoothSolver:  Solving for Ux, Initial residual = 1.79782e-06, Final residual = 1.0856e-07, No Iterations 3
smoothSolver:  Solving for Uy, Initial residual = 1.07352e-06, Final residual = 6.90795e-08, No Iterations 3
smoothSolver:  Solving for Uz, Initial residual = 8.40033e-07, Final residual = 5.54566e-08, No Iterations 3
GAMG:  Solving for p, Initial residual = 1.45662e-05, Final residual = 1.32012e-06, No Iterations 2
time step continuity errors : sum local = 0.000249778, global = 4.57646e-06, cumulative = -3.7639
smoothSolver:  Solving for omega, Initial residual = 6.67873e-07, Final residual = 2.80524e-08, No Iterations 3
smoothSolver:  Solving for k, Initial residual = 1.51214e-06, Final residual = 6.71301e-08, No Iterations 3
ExecutionTime = 285.18 s  ClockTime = 288 s

Time = 291

smoothSolver:  Solving for Ux, Initial residual = 1.50287e-06, Final residual = 1.07216e-07, No Iterations 3
smoothSolver:  Solving for Uy, Initial residual = 9.89666e-07, Final residual = 6.86354e-08, No Iterations 3
smoothSolver:  Solving for Uz, Initial residual = 7.72442e-07, Final residual = 5.49568e-08, No Iterations 3
GAMG:  Solving for p, Initial residual = 1.7772e-05, Final residual = 1.23926e-06, No Iterations 2
time step continuity errors : sum local = 0.000234495, global = -2.7714e-07, cumulative = -3.7639
smoothSolver:  Solving for omega, Initial residual = 6.68973e-07, Final residual = 2.89351e-08, No Iterations 3
smoothSolver:  Solving for k, Initial residual = 1.50775e-06, Final residual = 6.61956e-08, No Iterations 3
ExecutionTime = 286.08 s  ClockTime = 289 s

Time = 292

smoothSolver:  Solving for Ux, Initial residual = 1.77658e-06, Final residual = 1.07509e-07, No Iterations 3
smoothSolver:  Solving for Uy, Initial residual = 1.05539e-06, Final residual = 6.82296e-08, No Iterations 3
smoothSolver:  Solving for Uz, Initial residual = 8.26024e-07, Final residual = 5.43222e-08, No Iterations 3
GAMG:  Solving for p, Initial residual = 1.43247e-05, Final residual = 1.30587e-06, No Iterations 2
time step continuity errors : sum local = 0.000247081, global = 3.49826e-06, cumulative = -3.7639
smoothSolver:  Solving for omega, Initial residual = 6.66931e-07, Final residual = 2.80059e-08, No Iterations 3
smoothSolver:  Solving for k, Initial residual = 1.4714e-06, Final residual = 6.49909e-08, No Iterations 3
ExecutionTime = 286.98 s  ClockTime = 290 s

Time = 293

smoothSolver:  Solving for Ux, Initial residual = 1.485e-06, Final residual = 1.06327e-07, No Iterations 3
smoothSolver:  Solving for Uy, Initial residual = 9.71484e-07, Final residual = 6.75944e-08, No Iterations 3
smoothSolver:  Solving for Uz, Initial residual = 7.57395e-07, Final residual = 5.38059e-08, No Iterations 3
GAMG:  Solving for p, Initial residual = 1.75236e-05, Final residual = 1.22542e-06, No Iterations 2
time step continuity errors : sum local = 0.000231876, global = -2.31839e-06, cumulative = -3.7639
smoothSolver:  Solving for omega, Initial residual = 6.6815e-07, Final residual = 2.89082e-08, No Iterations 3
smoothSolver:  Solving for k, Initial residual = 1.47214e-06, Final residual = 6.45433e-08, No Iterations 3
ExecutionTime = 287.88 s  ClockTime = 291 s

Time = 294

smoothSolver:  Solving for Ux, Initial residual = 1.76022e-06, Final residual = 1.06481e-07, No Iterations 3
smoothSolver:  Solving for Uy, Initial residual = 1.03722e-06, Final residual = 6.70938e-08, No Iterations 3
smoothSolver:  Solving for Uz, Initial residual = 8.123e-07, Final residual = 5.34766e-08, No Iterations 3
GAMG:  Solving for p, Initial residual = 1.41297e-05, Final residual = 1.29268e-06, No Iterations 2
time step continuity errors : sum local = 0.000244586, global = 1.46888e-06, cumulative = -3.7639
smoothSolver:  Solving for omega, Initial residual = 6.66225e-07, Final residual = 2.79764e-08, No Iterations 3
smoothSolver:  Solving for k, Initial residual = 1.4485e-06, Final residual = 6.41432e-08, No Iterations 3
ExecutionTime = 288.77 s  ClockTime = 291 s

Time = 295

smoothSolver:  Solving for Ux, Initial residual = 1.47067e-06, Final residual = 1.05412e-07, No Iterations 3
smoothSolver:  Solving for Uy, Initial residual = 9.54226e-07, Final residual = 6.65678e-08, No Iterations 3
smoothSolver:  Solving for Uz, Initial residual = 7.44379e-07, Final residual = 5.30585e-08, No Iterations 3
GAMG:  Solving for p, Initial residual = 1.7389e-05, Final residual = 1.21655e-06, No Iterations 2
time step continuity errors : sum local = 0.000230198, global = -3.98139e-06, cumulative = -3.7639
smoothSolver:  Solving for omega, Initial residual = 6.67551e-07, Final residual = 2.88645e-08, No Iterations 3
smoothSolver:  Solving for k, Initial residual = 1.4586e-06, Final residual = 6.33658e-08, No Iterations 3
ExecutionTime = 289.67 s  ClockTime = 292 s

Time = 296

smoothSolver:  Solving for Ux, Initial residual = 1.74284e-06, Final residual = 1.05383e-07, No Iterations 3
smoothSolver:  Solving for Uy, Initial residual = 1.02208e-06, Final residual = 6.6533e-08, No Iterations 3
smoothSolver:  Solving for Uz, Initial residual = 8.00874e-07, Final residual = 5.28856e-08, No Iterations 3
GAMG:  Solving for p, Initial residual = 1.39747e-05, Final residual = 1.28235e-06, No Iterations 2
time step continuity errors : sum local = 0.000242632, global = 8.0315e-07, cumulative = -3.7639
smoothSolver:  Solving for omega, Initial residual = 6.65549e-07, Final residual = 2.79313e-08, No Iterations 3
smoothSolver:  Solving for k, Initial residual = 1.42903e-06, Final residual = 6.23692e-08, No Iterations 3
ExecutionTime = 290.56 s  ClockTime = 293 s

Time = 297

smoothSolver:  Solving for Ux, Initial residual = 1.45394e-06, Final residual = 1.04469e-07, No Iterations 3
smoothSolver:  Solving for Uy, Initial residual = 9.39968e-07, Final residual = 6.59665e-08, No Iterations 3
smoothSolver:  Solving for Uz, Initial residual = 7.32741e-07, Final residual = 5.21045e-08, No Iterations 3
GAMG:  Solving for p, Initial residual = 1.72057e-05, Final residual = 1.20487e-06, No Iterations 2
time step continuity errors : sum local = 0.000227988, global = -3.51777e-06, cumulative = -3.7639
smoothSolver:  Solving for omega, Initial residual = 6.66811e-07, Final residual = 2.88228e-08, No Iterations 3
smoothSolver:  Solving for k, Initial residual = 1.42855e-06, Final residual = 6.14324e-08, No Iterations 3
ExecutionTime = 291.47 s  ClockTime = 294 s

Time = 298

smoothSolver:  Solving for Ux, Initial residual = 1.72701e-06, Final residual = 1.04392e-07, No Iterations 3
smoothSolver:  Solving for Uy, Initial residual = 1.00887e-06, Final residual = 6.58586e-08, No Iterations 3
smoothSolver:  Solving for Uz, Initial residual = 7.88708e-07, Final residual = 5.18019e-08, No Iterations 3
GAMG:  Solving for p, Initial residual = 1.37787e-05, Final residual = 1.26961e-06, No Iterations 2
time step continuity errors : sum local = 0.00024022, global = 2.03319e-06, cumulative = -3.7639
smoothSolver:  Solving for omega, Initial residual = 6.64864e-07, Final residual = 2.79018e-08, No Iterations 3
smoothSolver:  Solving for k, Initial residual = 1.39644e-06, Final residual = 6.06594e-08, No Iterations 3
ExecutionTime = 292.36 s  ClockTime = 295 s

Time = 299

smoothSolver:  Solving for Ux, Initial residual = 1.44403e-06, Final residual = 1.03408e-07, No Iterations 3
smoothSolver:  Solving for Uy, Initial residual = 9.26181e-07, Final residual = 6.49628e-08, No Iterations 3
smoothSolver:  Solving for Uz, Initial residual = 7.20867e-07, Final residual = 5.12759e-08, No Iterations 3
GAMG:  Solving for p, Initial residual = 1.70363e-05, Final residual = 1.19151e-06, No Iterations 2
time step continuity errors : sum local = 0.000225459, global = -1.74183e-06, cumulative = -3.7639
smoothSolver:  Solving for omega, Initial residual = 6.66212e-07, Final residual = 2.88019e-08, No Iterations 3
smoothSolver:  Solving for k, Initial residual = 1.40381e-06, Final residual = 6.03013e-08, No Iterations 3
ExecutionTime = 293.25 s  ClockTime = 296 s

Time = 300

smoothSolver:  Solving for Ux, Initial residual = 1.72452e-06, Final residual = 1.03618e-07, No Iterations 3
smoothSolver:  Solving for Uy, Initial residual = 9.951e-07, Final residual = 6.47477e-08, No Iterations 3
smoothSolver:  Solving for Uz, Initial residual = 7.77159e-07, Final residual = 5.10834e-08, No Iterations 3
GAMG:  Solving for p, Initial residual = 1.36625e-05, Final residual = 1.26074e-06, No Iterations 2
time step continuity errors : sum local = 0.000238542, global = 3.54466e-06, cumulative = -3.7639
smoothSolver:  Solving for omega, Initial residual = 6.64401e-07, Final residual = 2.78711e-08, No Iterations 3
smoothSolver:  Solving for k, Initial residual = 1.38087e-06, Final residual = 5.97218e-08, No Iterations 3
ExecutionTime = 296.11 s  ClockTime = 299 s

End

