/*---------------------------------------------------------------------------*\
| =========                 |                                                 |
| \\      /  F ield         | OpenFOAM: The Open Source CFD Toolbox           |
|  \\    /   O peration     | Version:  2.1.1                                 |
|   \\  /    A nd           | Web:      www.OpenFOAM.org                      |
|    \\/     M anipulation  |                                                 |
\*---------------------------------------------------------------------------*/
Build  : 2.1.1-221db2718bbb
Exec   : simpleFoam
Date   : Aug 27 2012
Time   : 16:05:46
Host   : "nathan-Latitude-D820"
PID    : 21245
Case   : /home/nathan/Desktop/Thesis/Benchmark-4-Airbox2/iter_0048
nProcs : 1
sigFpe : Enabling floating point exception trapping (FOAM_SIGFPE).
fileModificationChecking : Monitoring run-time modified files using timeStampMaster
allowSystemOperations : Disallowing user-supplied system call operations

// * * * * * * * * * * * * * * * * * * * * * * * * * * * * * * * * * * * * * //
Create time

Create mesh for time = 0

Reading field p

Reading field U

Reading/calculating face flux field phi

Selecting incompressible transport model Newtonian
Selecting RAS turbulence model kOmegaSST
kOmegaSSTCoeffs
{
    alphaK1         0.85034;
    alphaK2         1;
    alphaOmega1     0.5;
    alphaOmega2     0.85616;
    gamma1          0.5532;
    gamma2          0.4403;
    beta1           0.075;
    beta2           0.0828;
    betaStar        0.09;
    a1              0.31;
    c1              10;
}

No field sources present


SIMPLE: no convergence criteria found. Calculations will run for 300 steps.


Starting time loop

Reading surface description:
    abInlet

Reading surface description:
    abOutlet

Time = 1

smoothSolver:  Solving for Ux, Initial residual = 0.0690654, Final residual = 0.00420442, No Iterations 4
smoothSolver:  Solving for Uy, Initial residual = 0.17478, Final residual = 0.0161803, No Iterations 3
smoothSolver:  Solving for Uz, Initial residual = 0.090806, Final residual = 0.00478913, No Iterations 4
GAMG:  Solving for p, Initial residual = 0.704911, Final residual = 0.0693613, No Iterations 3
time step continuity errors : sum local = 4.04512, global = 0.450858, cumulative = 0.450858
smoothSolver:  Solving for omega, Initial residual = 0.00987591, Final residual = 0.000838737, No Iterations 3
bounding omega, min: -662.551 max: 1.21626e+06 average: 16339.5
smoothSolver:  Solving for k, Initial residual = 1, Final residual = 0.0661986, No Iterations 3
ExecutionTime = 3.47 s  ClockTime = 4 s

Time = 2

smoothSolver:  Solving for Ux, Initial residual = 0.029694, Final residual = 0.00149173, No Iterations 4
smoothSolver:  Solving for Uy, Initial residual = 0.0733312, Final residual = 0.00622369, No Iterations 3
smoothSolver:  Solving for Uz, Initial residual = 0.0409291, Final residual = 0.00406196, No Iterations 3
GAMG:  Solving for p, Initial residual = 0.0435343, Final residual = 0.0024654, No Iterations 4
time step continuity errors : sum local = 2.29482, global = 0.142303, cumulative = 0.593161
smoothSolver:  Solving for omega, Initial residual = 0.999783, Final residual = 0.0877158, No Iterations 2
smoothSolver:  Solving for k, Initial residual = 0.552583, Final residual = 6.68364e-07, No Iterations 1
ExecutionTime = 4.38 s  ClockTime = 4 s

Time = 3

smoothSolver:  Solving for Ux, Initial residual = 0.0304734, Final residual = 0.0016097, No Iterations 4
smoothSolver:  Solving for Uy, Initial residual = 0.0716733, Final residual = 0.00348664, No Iterations 4
smoothSolver:  Solving for Uz, Initial residual = 0.0562863, Final residual = 0.00550905, No Iterations 3
GAMG:  Solving for p, Initial residual = 0.0178272, Final residual = 0.00174166, No Iterations 2
time step continuity errors : sum local = 3.15937, global = 0.62299, cumulative = 1.21615
smoothSolver:  Solving for omega, Initial residual = 0.538518, Final residual = 1.88773e-11, No Iterations 1
bounding omega, min: -2.74546e+08 max: 3.78023e+12 average: 1.82014e+08
smoothSolver:  Solving for k, Initial residual = 0.0720889, Final residual = 1.01442e-06, No Iterations 1
ExecutionTime = 5.23 s  ClockTime = 5 s

Time = 4

smoothSolver:  Solving for Ux, Initial residual = 0.0281407, Final residual = 0.00157366, No Iterations 4
smoothSolver:  Solving for Uy, Initial residual = 0.0583434, Final residual = 0.00308252, No Iterations 4
smoothSolver:  Solving for Uz, Initial residual = 0.0536622, Final residual = 0.00249566, No Iterations 4
GAMG:  Solving for p, Initial residual = 0.0184731, Final residual = 0.00142404, No Iterations 3
time step continuity errors : sum local = 2.60087, global = 0.407771, cumulative = 1.62392
smoothSolver:  Solving for omega, Initial residual = 0.538521, Final residual = 8.83757e-11, No Iterations 1
bounding omega, min: -747027 max: 1.13407e+12 average: 5.47308e+07
smoothSolver:  Solving for k, Initial residual = 0.015569, Final residual = 2.38624e-06, No Iterations 1
ExecutionTime = 6.12 s  ClockTime = 6 s

Time = 5

smoothSolver:  Solving for Ux, Initial residual = 0.0158867, Final residual = 0.00157851, No Iterations 3
smoothSolver:  Solving for Uy, Initial residual = 0.0347172, Final residual = 0.00336215, No Iterations 3
smoothSolver:  Solving for Uz, Initial residual = 0.0299494, Final residual = 0.00137675, No Iterations 4
GAMG:  Solving for p, Initial residual = 0.019972, Final residual = 0.00157302, No Iterations 3
time step continuity errors : sum local = 2.36336, global = 0.0525058, cumulative = 1.67643
smoothSolver:  Solving for omega, Initial residual = 0.538521, Final residual = 3.74271e-10, No Iterations 1
smoothSolver:  Solving for k, Initial residual = 0.0039639, Final residual = 6.5126e-06, No Iterations 1
ExecutionTime = 6.98 s  ClockTime = 7 s

Time = 6

smoothSolver:  Solving for Ux, Initial residual = 0.0211147, Final residual = 0.000946504, No Iterations 4
smoothSolver:  Solving for Uy, Initial residual = 0.0441041, Final residual = 0.00217281, No Iterations 4
smoothSolver:  Solving for Uz, Initial residual = 0.0321932, Final residual = 0.00175989, No Iterations 4
GAMG:  Solving for p, Initial residual = 0.0223973, Final residual = 0.0021974, No Iterations 2
time step continuity errors : sum local = 2.69073, global = -0.530919, cumulative = 1.14551
smoothSolver:  Solving for omega, Initial residual = 0.538521, Final residual = 1.48873e-09, No Iterations 1
bounding omega, min: -3217.2 max: 1.02066e+11 average: 4.9446e+06
smoothSolver:  Solving for k, Initial residual = 0.0011267, Final residual = 1.96699e-05, No Iterations 1
ExecutionTime = 7.85 s  ClockTime = 8 s

Time = 7

smoothSolver:  Solving for Ux, Initial residual = 0.0236968, Final residual = 0.00113422, No Iterations 4
smoothSolver:  Solving for Uy, Initial residual = 0.0428503, Final residual = 0.00225714, No Iterations 4
smoothSolver:  Solving for Uz, Initial residual = 0.0323022, Final residual = 0.00192458, No Iterations 4
GAMG:  Solving for p, Initial residual = 0.024738, Final residual = 0.00228668, No Iterations 3
time step continuity errors : sum local = 2.4064, global = -0.226612, cumulative = 0.918896
smoothSolver:  Solving for omega, Initial residual = 0.538521, Final residual = 5.66707e-09, No Iterations 1
smoothSolver:  Solving for k, Initial residual = 0.000464008, Final residual = 2.70382e-05, No Iterations 2
ExecutionTime = 8.73 s  ClockTime = 9 s

Time = 8

smoothSolver:  Solving for Ux, Initial residual = 0.0208748, Final residual = 0.00109227, No Iterations 4
smoothSolver:  Solving for Uy, Initial residual = 0.0336153, Final residual = 0.00166063, No Iterations 4
smoothSolver:  Solving for Uz, Initial residual = 0.0238727, Final residual = 0.0012683, No Iterations 4
GAMG:  Solving for p, Initial residual = 0.0258193, Final residual = 0.00253605, No Iterations 3
time step continuity errors : sum local = 2.19211, global = -0.233476, cumulative = 0.68542
smoothSolver:  Solving for omega, Initial residual = 0.538521, Final residual = 2.13671e-08, No Iterations 1
smoothSolver:  Solving for k, Initial residual = 0.000594312, Final residual = 3.89862e-05, No Iterations 3
ExecutionTime = 9.63 s  ClockTime = 10 s

Time = 9

smoothSolver:  Solving for Ux, Initial residual = 0.0177128, Final residual = 0.000897783, No Iterations 4
smoothSolver:  Solving for Uy, Initial residual = 0.0371683, Final residual = 0.00197572, No Iterations 4
smoothSolver:  Solving for Uz, Initial residual = 0.0250043, Final residual = 0.00243721, No Iterations 3
GAMG:  Solving for p, Initial residual = 0.0288746, Final residual = 0.00281266, No Iterations 2
time step continuity errors : sum local = 2.09654, global = -0.0314131, cumulative = 0.654007
smoothSolver:  Solving for omega, Initial residual = 0.538522, Final residual = 8.02522e-08, No Iterations 1
smoothSolver:  Solving for k, Initial residual = 0.00161669, Final residual = 0.000125819, No Iterations 3
ExecutionTime = 10.49 s  ClockTime = 11 s

Time = 10

smoothSolver:  Solving for Ux, Initial residual = 0.0159249, Final residual = 0.000801655, No Iterations 4
smoothSolver:  Solving for Uy, Initial residual = 0.0347311, Final residual = 0.00191881, No Iterations 4
smoothSolver:  Solving for Uz, Initial residual = 0.024557, Final residual = 0.00115261, No Iterations 4
GAMG:  Solving for p, Initial residual = 0.0299013, Final residual = 0.00193487, No Iterations 3
time step continuity errors : sum local = 1.35631, global = 0.208384, cumulative = 0.862391
smoothSolver:  Solving for omega, Initial residual = 0.538525, Final residual = 3.05653e-07, No Iterations 1
smoothSolver:  Solving for k, Initial residual = 0.00468805, Final residual = 0.000380647, No Iterations 3
ExecutionTime = 11.38 s  ClockTime = 11 s

Time = 11

smoothSolver:  Solving for Ux, Initial residual = 0.0147308, Final residual = 0.000780349, No Iterations 4
smoothSolver:  Solving for Uy, Initial residual = 0.0266124, Final residual = 0.00138409, No Iterations 4
smoothSolver:  Solving for Uz, Initial residual = 0.0203831, Final residual = 0.00104151, No Iterations 4
GAMG:  Solving for p, Initial residual = 0.0287299, Final residual = 0.00251099, No Iterations 3
time step continuity errors : sum local = 1.66756, global = 0.169907, cumulative = 1.0323
smoothSolver:  Solving for omega, Initial residual = 0.538529, Final residual = 1.15584e-06, No Iterations 1
smoothSolver:  Solving for k, Initial residual = 0.0114209, Final residual = 0.000955621, No Iterations 3
ExecutionTime = 12.27 s  ClockTime = 12 s

Time = 12

smoothSolver:  Solving for Ux, Initial residual = 0.0139549, Final residual = 0.000747796, No Iterations 4
smoothSolver:  Solving for Uy, Initial residual = 0.0209229, Final residual = 0.00096326, No Iterations 4
smoothSolver:  Solving for Uz, Initial residual = 0.0172021, Final residual = 0.000845573, No Iterations 4
GAMG:  Solving for p, Initial residual = 0.0263306, Final residual = 0.00204161, No Iterations 3
time step continuity errors : sum local = 1.352, global = 0.0881776, cumulative = 1.12048
smoothSolver:  Solving for omega, Initial residual = 0.538487, Final residual = 4.40304e-06, No Iterations 1
smoothSolver:  Solving for k, Initial residual = 0.0197973, Final residual = 0.00168685, No Iterations 3
ExecutionTime = 13.17 s  ClockTime = 13 s

Time = 13

smoothSolver:  Solving for Ux, Initial residual = 0.0135406, Final residual = 0.000710781, No Iterations 4
smoothSolver:  Solving for Uy, Initial residual = 0.0205339, Final residual = 0.000978229, No Iterations 4
smoothSolver:  Solving for Uz, Initial residual = 0.0187167, Final residual = 0.0010242, No Iterations 4
GAMG:  Solving for p, Initial residual = 0.0248554, Final residual = 0.00242062, No Iterations 2
time step continuity errors : sum local = 1.64896, global = -0.153485, cumulative = 0.96699
smoothSolver:  Solving for omega, Initial residual = 0.537701, Final residual = 1.74548e-05, No Iterations 1
smoothSolver:  Solving for k, Initial residual = 0.0252309, Final residual = 0.00213085, No Iterations 3
ExecutionTime = 14.03 s  ClockTime = 14 s

Time = 14

smoothSolver:  Solving for Ux, Initial residual = 0.0135431, Final residual = 0.000713759, No Iterations 4
smoothSolver:  Solving for Uy, Initial residual = 0.020002, Final residual = 0.000951288, No Iterations 4
smoothSolver:  Solving for Uz, Initial residual = 0.0183375, Final residual = 0.00108552, No Iterations 4
GAMG:  Solving for p, Initial residual = 0.0244716, Final residual = 0.00158407, No Iterations 3
time step continuity errors : sum local = 1.04239, global = -0.163928, cumulative = 0.803062
smoothSolver:  Solving for omega, Initial residual = 0.528052, Final residual = 7.76052e-05, No Iterations 1
smoothSolver:  Solving for k, Initial residual = 0.0276899, Final residual = 0.00229253, No Iterations 3
ExecutionTime = 14.93 s  ClockTime = 15 s

Time = 15

smoothSolver:  Solving for Ux, Initial residual = 0.0137825, Final residual = 0.000731336, No Iterations 4
smoothSolver:  Solving for Uy, Initial residual = 0.0216801, Final residual = 0.00109668, No Iterations 4
smoothSolver:  Solving for Uz, Initial residual = 0.020225, Final residual = 0.00120151, No Iterations 4
GAMG:  Solving for p, Initial residual = 0.024012, Final residual = 0.00157469, No Iterations 3
time step continuity errors : sum local = 0.982725, global = -0.0901904, cumulative = 0.712872
smoothSolver:  Solving for omega, Initial residual = 0.437419, Final residual = 0.000357951, No Iterations 1
smoothSolver:  Solving for k, Initial residual = 0.0288225, Final residual = 0.00228627, No Iterations 3
ExecutionTime = 15.83 s  ClockTime = 16 s

Time = 16

smoothSolver:  Solving for Ux, Initial residual = 0.0145004, Final residual = 0.00080473, No Iterations 4
smoothSolver:  Solving for Uy, Initial residual = 0.0229355, Final residual = 0.0012197, No Iterations 4
smoothSolver:  Solving for Uz, Initial residual = 0.0226065, Final residual = 0.00129571, No Iterations 4
GAMG:  Solving for p, Initial residual = 0.0261318, Final residual = 0.00135658, No Iterations 3
time step continuity errors : sum local = 0.757268, global = -0.0408137, cumulative = 0.672058
smoothSolver:  Solving for omega, Initial residual = 0.150278, Final residual = 0.000892896, No Iterations 1
smoothSolver:  Solving for k, Initial residual = 0.0290487, Final residual = 0.00228789, No Iterations 3
ExecutionTime = 16.73 s  ClockTime = 17 s

Time = 17

smoothSolver:  Solving for Ux, Initial residual = 0.0155591, Final residual = 0.000912569, No Iterations 4
smoothSolver:  Solving for Uy, Initial residual = 0.0228092, Final residual = 0.00124369, No Iterations 4
smoothSolver:  Solving for Uz, Initial residual = 0.0225487, Final residual = 0.0012954, No Iterations 4
GAMG:  Solving for p, Initial residual = 0.0292032, Final residual = 0.00264619, No Iterations 2
time step continuity errors : sum local = 1.28257, global = -0.0583456, cumulative = 0.613712
smoothSolver:  Solving for omega, Initial residual = 0.0201272, Final residual = 0.000960844, No Iterations 1
smoothSolver:  Solving for k, Initial residual = 0.0292704, Final residual = 0.00231077, No Iterations 3
ExecutionTime = 17.59 s  ClockTime = 18 s

Time = 18

smoothSolver:  Solving for Ux, Initial residual = 0.0161862, Final residual = 0.000956482, No Iterations 4
smoothSolver:  Solving for Uy, Initial residual = 0.0215162, Final residual = 0.00116369, No Iterations 4
smoothSolver:  Solving for Uz, Initial residual = 0.0210973, Final residual = 0.00124379, No Iterations 4
GAMG:  Solving for p, Initial residual = 0.0298094, Final residual = 0.00256423, No Iterations 2
time step continuity errors : sum local = 1.15962, global = 0.0367286, cumulative = 0.650441
smoothSolver:  Solving for omega, Initial residual = 0.00388064, Final residual = 0.000366829, No Iterations 2
smoothSolver:  Solving for k, Initial residual = 0.0293501, Final residual = 0.00228449, No Iterations 3
ExecutionTime = 18.47 s  ClockTime = 19 s

Time = 19

smoothSolver:  Solving for Ux, Initial residual = 0.0166451, Final residual = 0.000984, No Iterations 4
smoothSolver:  Solving for Uy, Initial residual = 0.0207335, Final residual = 0.00109979, No Iterations 4
smoothSolver:  Solving for Uz, Initial residual = 0.0206648, Final residual = 0.00122481, No Iterations 4
GAMG:  Solving for p, Initial residual = 0.0301187, Final residual = 0.00247012, No Iterations 2
time step continuity errors : sum local = 1.07154, global = -0.0355611, cumulative = 0.61488
smoothSolver:  Solving for omega, Initial residual = 0.00205667, Final residual = 0.000142049, No Iterations 3
smoothSolver:  Solving for k, Initial residual = 0.0291431, Final residual = 0.00223598, No Iterations 3
ExecutionTime = 19.35 s  ClockTime = 19 s

Time = 20

smoothSolver:  Solving for Ux, Initial residual = 0.0172004, Final residual = 0.00100893, No Iterations 4
smoothSolver:  Solving for Uy, Initial residual = 0.0204113, Final residual = 0.00106486, No Iterations 4
smoothSolver:  Solving for Uz, Initial residual = 0.0212166, Final residual = 0.00125639, No Iterations 4
GAMG:  Solving for p, Initial residual = 0.0303787, Final residual = 0.00251013, No Iterations 2
time step continuity errors : sum local = 1.05976, global = -0.19311, cumulative = 0.42177
smoothSolver:  Solving for omega, Initial residual = 0.00168273, Final residual = 0.000126377, No Iterations 3
smoothSolver:  Solving for k, Initial residual = 0.0293612, Final residual = 0.00222644, No Iterations 3
ExecutionTime = 20.23 s  ClockTime = 20 s

Time = 21

smoothSolver:  Solving for Ux, Initial residual = 0.0178578, Final residual = 0.00103414, No Iterations 4
smoothSolver:  Solving for Uy, Initial residual = 0.020458, Final residual = 0.00105614, No Iterations 4
smoothSolver:  Solving for Uz, Initial residual = 0.0225431, Final residual = 0.00133941, No Iterations 4
GAMG:  Solving for p, Initial residual = 0.0310551, Final residual = 0.00265979, No Iterations 2
time step continuity errors : sum local = 1.09667, global = -0.300421, cumulative = 0.121348
smoothSolver:  Solving for omega, Initial residual = 0.00151397, Final residual = 0.000114038, No Iterations 3
smoothSolver:  Solving for k, Initial residual = 0.0295224, Final residual = 0.00219595, No Iterations 3
ExecutionTime = 21.11 s  ClockTime = 21 s

Time = 22

smoothSolver:  Solving for Ux, Initial residual = 0.0184653, Final residual = 0.00105944, No Iterations 4
smoothSolver:  Solving for Uy, Initial residual = 0.0205142, Final residual = 0.00107743, No Iterations 4
smoothSolver:  Solving for Uz, Initial residual = 0.0242616, Final residual = 0.00145466, No Iterations 4
GAMG:  Solving for p, Initial residual = 0.0328321, Final residual = 0.00290744, No Iterations 2
time step continuity errors : sum local = 1.17035, global = -0.314867, cumulative = -0.193519
smoothSolver:  Solving for omega, Initial residual = 0.00139858, Final residual = 0.000104771, No Iterations 3
smoothSolver:  Solving for k, Initial residual = 0.0295705, Final residual = 0.00219968, No Iterations 3
ExecutionTime = 21.98 s  ClockTime = 22 s

Time = 23

smoothSolver:  Solving for Ux, Initial residual = 0.0191613, Final residual = 0.00109779, No Iterations 4
smoothSolver:  Solving for Uy, Initial residual = 0.0208863, Final residual = 0.00111718, No Iterations 4
smoothSolver:  Solving for Uz, Initial residual = 0.0257967, Final residual = 0.00155674, No Iterations 4
GAMG:  Solving for p, Initial residual = 0.0349378, Final residual = 0.00324919, No Iterations 2
time step continuity errors : sum local = 1.2694, global = -0.241533, cumulative = -0.435052
smoothSolver:  Solving for omega, Initial residual = 0.00129544, Final residual = 9.66705e-05, No Iterations 3
smoothSolver:  Solving for k, Initial residual = 0.0302039, Final residual = 0.00224642, No Iterations 3
ExecutionTime = 22.85 s  ClockTime = 23 s

Time = 24

smoothSolver:  Solving for Ux, Initial residual = 0.0201612, Final residual = 0.00116965, No Iterations 4
smoothSolver:  Solving for Uy, Initial residual = 0.0212172, Final residual = 0.00115224, No Iterations 4
smoothSolver:  Solving for Uz, Initial residual = 0.0265467, Final residual = 0.0015999, No Iterations 4
GAMG:  Solving for p, Initial residual = 0.0381097, Final residual = 0.00350544, No Iterations 2
time step continuity errors : sum local = 1.30077, global = -0.158902, cumulative = -0.593954
smoothSolver:  Solving for omega, Initial residual = 0.00121675, Final residual = 9.01857e-05, No Iterations 3
smoothSolver:  Solving for k, Initial residual = 0.0303927, Final residual = 0.0022723, No Iterations 3
ExecutionTime = 23.74 s  ClockTime = 24 s

Time = 25

smoothSolver:  Solving for Ux, Initial residual = 0.0214983, Final residual = 0.00127583, No Iterations 4
smoothSolver:  Solving for Uy, Initial residual = 0.0216746, Final residual = 0.00120379, No Iterations 4
smoothSolver:  Solving for Uz, Initial residual = 0.026317, Final residual = 0.00157862, No Iterations 4
GAMG:  Solving for p, Initial residual = 0.0433906, Final residual = 0.00348635, No Iterations 2
time step continuity errors : sum local = 1.19353, global = -0.117586, cumulative = -0.71154
smoothSolver:  Solving for omega, Initial residual = 0.00114997, Final residual = 8.59797e-05, No Iterations 3
smoothSolver:  Solving for k, Initial residual = 0.0310572, Final residual = 0.00236988, No Iterations 3
ExecutionTime = 24.63 s  ClockTime = 25 s

Time = 26

smoothSolver:  Solving for Ux, Initial residual = 0.0227386, Final residual = 0.00137952, No Iterations 4
smoothSolver:  Solving for Uy, Initial residual = 0.0220428, Final residual = 0.00124917, No Iterations 4
smoothSolver:  Solving for Uz, Initial residual = 0.0254483, Final residual = 0.00152353, No Iterations 4
GAMG:  Solving for p, Initial residual = 0.0485929, Final residual = 0.00307797, No Iterations 2
time step continuity errors : sum local = 0.967551, global = -0.074981, cumulative = -0.786521
smoothSolver:  Solving for omega, Initial residual = 0.00109961, Final residual = 8.22102e-05, No Iterations 3
smoothSolver:  Solving for k, Initial residual = 0.0319351, Final residual = 0.00247043, No Iterations 3
ExecutionTime = 25.51 s  ClockTime = 26 s

Time = 27

smoothSolver:  Solving for Ux, Initial residual = 0.0233405, Final residual = 0.00142713, No Iterations 4
smoothSolver:  Solving for Uy, Initial residual = 0.0219519, Final residual = 0.00124696, No Iterations 4
smoothSolver:  Solving for Uz, Initial residual = 0.0247758, Final residual = 0.00148583, No Iterations 4
GAMG:  Solving for p, Initial residual = 0.052439, Final residual = 0.00277404, No Iterations 2
time step continuity errors : sum local = 0.835225, global = -0.0835269, cumulative = -0.870048
smoothSolver:  Solving for omega, Initial residual = 0.00105041, Final residual = 7.89388e-05, No Iterations 3
smoothSolver:  Solving for k, Initial residual = 0.0327566, Final residual = 0.00260162, No Iterations 3
ExecutionTime = 26.38 s  ClockTime = 26 s

Time = 28

smoothSolver:  Solving for Ux, Initial residual = 0.0234262, Final residual = 0.00142354, No Iterations 4
smoothSolver:  Solving for Uy, Initial residual = 0.0216341, Final residual = 0.0012011, No Iterations 4
smoothSolver:  Solving for Uz, Initial residual = 0.0245186, Final residual = 0.00146952, No Iterations 4
GAMG:  Solving for p, Initial residual = 0.0542493, Final residual = 0.00287632, No Iterations 2
time step continuity errors : sum local = 0.877131, global = -0.12551, cumulative = -0.995558
smoothSolver:  Solving for omega, Initial residual = 0.00100162, Final residual = 7.62823e-05, No Iterations 3
smoothSolver:  Solving for k, Initial residual = 0.0339081, Final residual = 0.00269635, No Iterations 3
ExecutionTime = 27.26 s  ClockTime = 27 s

Time = 29

smoothSolver:  Solving for Ux, Initial residual = 0.0235331, Final residual = 0.00142407, No Iterations 4
smoothSolver:  Solving for Uy, Initial residual = 0.0212466, Final residual = 0.00115379, No Iterations 4
smoothSolver:  Solving for Uz, Initial residual = 0.024525, Final residual = 0.00147111, No Iterations 4
GAMG:  Solving for p, Initial residual = 0.0555523, Final residual = 0.0029893, No Iterations 2
time step continuity errors : sum local = 0.943285, global = -0.166815, cumulative = -1.16237
smoothSolver:  Solving for omega, Initial residual = 0.000964605, Final residual = 7.38161e-05, No Iterations 3
smoothSolver:  Solving for k, Initial residual = 0.0344393, Final residual = 0.00272123, No Iterations 3
ExecutionTime = 28.15 s  ClockTime = 28 s

Time = 30

smoothSolver:  Solving for Ux, Initial residual = 0.0236471, Final residual = 0.00143195, No Iterations 4
smoothSolver:  Solving for Uy, Initial residual = 0.0207848, Final residual = 0.00110985, No Iterations 4
smoothSolver:  Solving for Uz, Initial residual = 0.0247715, Final residual = 0.00148033, No Iterations 4
GAMG:  Solving for p, Initial residual = 0.0561761, Final residual = 0.00307835, No Iterations 2
time step continuity errors : sum local = 1.01617, global = -0.187712, cumulative = -1.35009
smoothSolver:  Solving for omega, Initial residual = 0.00092846, Final residual = 7.09937e-05, No Iterations 3
smoothSolver:  Solving for k, Initial residual = 0.0351635, Final residual = 0.00269526, No Iterations 3
ExecutionTime = 29.01 s  ClockTime = 29 s

Time = 31

smoothSolver:  Solving for Ux, Initial residual = 0.0237911, Final residual = 0.00143523, No Iterations 4
smoothSolver:  Solving for Uy, Initial residual = 0.0202053, Final residual = 0.00107019, No Iterations 4
smoothSolver:  Solving for Uz, Initial residual = 0.0249027, Final residual = 0.00146978, No Iterations 4
GAMG:  Solving for p, Initial residual = 0.0573718, Final residual = 0.00309405, No Iterations 2
time step continuity errors : sum local = 1.06194, global = -0.180353, cumulative = -1.53044
smoothSolver:  Solving for omega, Initial residual = 0.000899103, Final residual = 6.78742e-05, No Iterations 3
smoothSolver:  Solving for k, Initial residual = 0.0353958, Final residual = 0.00265419, No Iterations 3
ExecutionTime = 29.89 s  ClockTime = 30 s

Time = 32

smoothSolver:  Solving for Ux, Initial residual = 0.0239606, Final residual = 0.00143634, No Iterations 4
smoothSolver:  Solving for Uy, Initial residual = 0.0198583, Final residual = 0.00104336, No Iterations 4
smoothSolver:  Solving for Uz, Initial residual = 0.0247442, Final residual = 0.00142033, No Iterations 4
GAMG:  Solving for p, Initial residual = 0.0591505, Final residual = 0.00308527, No Iterations 2
time step continuity errors : sum local = 1.07472, global = -0.139585, cumulative = -1.67002
smoothSolver:  Solving for omega, Initial residual = 0.000872765, Final residual = 6.4567e-05, No Iterations 3
smoothSolver:  Solving for k, Initial residual = 0.0351674, Final residual = 0.00256806, No Iterations 3
ExecutionTime = 30.77 s  ClockTime = 31 s

Time = 33

smoothSolver:  Solving for Ux, Initial residual = 0.0242147, Final residual = 0.00144669, No Iterations 4
smoothSolver:  Solving for Uy, Initial residual = 0.0199501, Final residual = 0.00103626, No Iterations 4
smoothSolver:  Solving for Uz, Initial residual = 0.0239406, Final residual = 0.00133124, No Iterations 4
GAMG:  Solving for p, Initial residual = 0.0611253, Final residual = 0.00295598, No Iterations 2
time step continuity errors : sum local = 1.00526, global = -0.0956396, cumulative = -1.76566
smoothSolver:  Solving for omega, Initial residual = 0.000844124, Final residual = 6.22943e-05, No Iterations 3
smoothSolver:  Solving for k, Initial residual = 0.0347825, Final residual = 0.00253307, No Iterations 3
ExecutionTime = 31.66 s  ClockTime = 32 s

Time = 34

smoothSolver:  Solving for Ux, Initial residual = 0.0244899, Final residual = 0.00146639, No Iterations 4
smoothSolver:  Solving for Uy, Initial residual = 0.0199409, Final residual = 0.00103665, No Iterations 4
smoothSolver:  Solving for Uz, Initial residual = 0.0226887, Final residual = 0.001233, No Iterations 4
GAMG:  Solving for p, Initial residual = 0.064996, Final residual = 0.00268802, No Iterations 2
time step continuity errors : sum local = 0.854611, global = -0.0461525, cumulative = -1.81182
smoothSolver:  Solving for omega, Initial residual = 0.000824667, Final residual = 6.05943e-05, No Iterations 3
smoothSolver:  Solving for k, Initial residual = 0.0348028, Final residual = 0.00252919, No Iterations 3
ExecutionTime = 32.54 s  ClockTime = 33 s

Time = 35

smoothSolver:  Solving for Ux, Initial residual = 0.0244912, Final residual = 0.00145943, No Iterations 4
smoothSolver:  Solving for Uy, Initial residual = 0.0195885, Final residual = 0.00103796, No Iterations 4
smoothSolver:  Solving for Uz, Initial residual = 0.0215052, Final residual = 0.00115115, No Iterations 4
GAMG:  Solving for p, Initial residual = 0.066756, Final residual = 0.00268818, No Iterations 2
time step continuity errors : sum local = 0.830712, global = 0.0026062, cumulative = -1.80921
smoothSolver:  Solving for omega, Initial residual = 0.000804838, Final residual = 5.98202e-05, No Iterations 3
smoothSolver:  Solving for k, Initial residual = 0.0347875, Final residual = 0.00255687, No Iterations 3
ExecutionTime = 33.42 s  ClockTime = 34 s

Time = 36

smoothSolver:  Solving for Ux, Initial residual = 0.0241986, Final residual = 0.00143285, No Iterations 4
smoothSolver:  Solving for Uy, Initial residual = 0.0190604, Final residual = 0.00102325, No Iterations 4
smoothSolver:  Solving for Uz, Initial residual = 0.0206886, Final residual = 0.00109255, No Iterations 4
GAMG:  Solving for p, Initial residual = 0.0673569, Final residual = 0.00291422, No Iterations 2
time step continuity errors : sum local = 0.89948, global = -0.028721, cumulative = -1.83793
smoothSolver:  Solving for omega, Initial residual = 0.00079457, Final residual = 5.8363e-05, No Iterations 3
smoothSolver:  Solving for k, Initial residual = 0.0347985, Final residual = 0.00261583, No Iterations 3
ExecutionTime = 34.29 s  ClockTime = 34 s

Time = 37

smoothSolver:  Solving for Ux, Initial residual = 0.0238936, Final residual = 0.00140522, No Iterations 4
smoothSolver:  Solving for Uy, Initial residual = 0.0185509, Final residual = 0.000985801, No Iterations 4
smoothSolver:  Solving for Uz, Initial residual = 0.0201158, Final residual = 0.00105436, No Iterations 4
GAMG:  Solving for p, Initial residual = 0.0666201, Final residual = 0.00301387, No Iterations 2
time step continuity errors : sum local = 0.941026, global = -0.122424, cumulative = -1.96035
smoothSolver:  Solving for omega, Initial residual = 0.000779302, Final residual = 5.74089e-05, No Iterations 3
smoothSolver:  Solving for k, Initial residual = 0.0353792, Final residual = 0.00275017, No Iterations 3
ExecutionTime = 35.17 s  ClockTime = 35 s

Time = 38

smoothSolver:  Solving for Ux, Initial residual = 0.0235227, Final residual = 0.00138, No Iterations 4
smoothSolver:  Solving for Uy, Initial residual = 0.0179695, Final residual = 0.000946231, No Iterations 4
smoothSolver:  Solving for Uz, Initial residual = 0.0197423, Final residual = 0.00103676, No Iterations 4
GAMG:  Solving for p, Initial residual = 0.0663125, Final residual = 0.00304074, No Iterations 2
time step continuity errors : sum local = 0.929586, global = -0.216281, cumulative = -2.17664
smoothSolver:  Solving for omega, Initial residual = 0.000752754, Final residual = 5.65079e-05, No Iterations 3
smoothSolver:  Solving for k, Initial residual = 0.0360395, Final residual = 0.00290575, No Iterations 3
ExecutionTime = 36.04 s  ClockTime = 36 s

Time = 39

smoothSolver:  Solving for Ux, Initial residual = 0.0230976, Final residual = 0.00135756, No Iterations 4
smoothSolver:  Solving for Uy, Initial residual = 0.0172814, Final residual = 0.000913425, No Iterations 4
smoothSolver:  Solving for Uz, Initial residual = 0.0194473, Final residual = 0.00102612, No Iterations 4
GAMG:  Solving for p, Initial residual = 0.0678705, Final residual = 0.00296657, No Iterations 2
time step continuity errors : sum local = 0.875229, global = -0.258939, cumulative = -2.43557
smoothSolver:  Solving for omega, Initial residual = 0.000717566, Final residual = 5.47023e-05, No Iterations 3
smoothSolver:  Solving for k, Initial residual = 0.0364701, Final residual = 0.00300579, No Iterations 3
ExecutionTime = 36.93 s  ClockTime = 37 s

Time = 40

smoothSolver:  Solving for Ux, Initial residual = 0.0227145, Final residual = 0.00134112, No Iterations 4
smoothSolver:  Solving for Uy, Initial residual = 0.0166809, Final residual = 0.000873556, No Iterations 4
smoothSolver:  Solving for Uz, Initial residual = 0.0190129, Final residual = 0.00100818, No Iterations 4
GAMG:  Solving for p, Initial residual = 0.0708632, Final residual = 0.0028399, No Iterations 2
time step continuity errors : sum local = 0.803472, global = -0.23141, cumulative = -2.66698
smoothSolver:  Solving for omega, Initial residual = 0.000696741, Final residual = 5.3031e-05, No Iterations 3
smoothSolver:  Solving for k, Initial residual = 0.0370716, Final residual = 0.00310803, No Iterations 3
ExecutionTime = 37.8 s  ClockTime = 38 s

Time = 41

smoothSolver:  Solving for Ux, Initial residual = 0.0223331, Final residual = 0.00132448, No Iterations 4
smoothSolver:  Solving for Uy, Initial residual = 0.0160981, Final residual = 0.000829292, No Iterations 4
smoothSolver:  Solving for Uz, Initial residual = 0.0182466, Final residual = 0.000972833, No Iterations 4
GAMG:  Solving for p, Initial residual = 0.07472, Final residual = 0.00278707, No Iterations 2
time step continuity errors : sum local = 0.742279, global = -0.173005, cumulative = -2.83999
smoothSolver:  Solving for omega, Initial residual = 0.000676626, Final residual = 5.19208e-05, No Iterations 3
smoothSolver:  Solving for k, Initial residual = 0.0380186, Final residual = 0.00324595, No Iterations 3
ExecutionTime = 38.68 s  ClockTime = 39 s

Time = 42

smoothSolver:  Solving for Ux, Initial residual = 0.021919, Final residual = 0.00130211, No Iterations 4
smoothSolver:  Solving for Uy, Initial residual = 0.015574, Final residual = 0.000797786, No Iterations 4
smoothSolver:  Solving for Uz, Initial residual = 0.0172058, Final residual = 0.000907911, No Iterations 4
GAMG:  Solving for p, Initial residual = 0.0783371, Final residual = 0.00302079, No Iterations 2
time step continuity errors : sum local = 0.756844, global = -0.0905678, cumulative = -2.93056
smoothSolver:  Solving for omega, Initial residual = 0.000659364, Final residual = 5.02935e-05, No Iterations 3
smoothSolver:  Solving for k, Initial residual = 0.0389942, Final residual = 0.00336725, No Iterations 3
ExecutionTime = 39.57 s  ClockTime = 40 s

Time = 43

smoothSolver:  Solving for Ux, Initial residual = 0.0214745, Final residual = 0.00127277, No Iterations 4
smoothSolver:  Solving for Uy, Initial residual = 0.0152594, Final residual = 0.000775775, No Iterations 4
smoothSolver:  Solving for Uz, Initial residual = 0.0162616, Final residual = 0.000839559, No Iterations 4
GAMG:  Solving for p, Initial residual = 0.0811695, Final residual = 0.00334217, No Iterations 2
time step continuity errors : sum local = 0.808003, global = -0.00167629, cumulative = -2.93223
smoothSolver:  Solving for omega, Initial residual = 0.000642062, Final residual = 4.80686e-05, No Iterations 3
smoothSolver:  Solving for k, Initial residual = 0.0399423, Final residual = 0.00347501, No Iterations 3
ExecutionTime = 40.45 s  ClockTime = 41 s

Time = 44

smoothSolver:  Solving for Ux, Initial residual = 0.0209988, Final residual = 0.00123304, No Iterations 4
smoothSolver:  Solving for Uy, Initial residual = 0.0150657, Final residual = 0.000759958, No Iterations 4
smoothSolver:  Solving for Uz, Initial residual = 0.0154779, Final residual = 0.000787716, No Iterations 4
GAMG:  Solving for p, Initial residual = 0.0802305, Final residual = 0.00344991, No Iterations 2
time step continuity errors : sum local = 0.82896, global = 0.0311807, cumulative = -2.90105
smoothSolver:  Solving for omega, Initial residual = 0.00063087, Final residual = 4.63176e-05, No Iterations 3
smoothSolver:  Solving for k, Initial residual = 0.0411903, Final residual = 0.00354419, No Iterations 3
ExecutionTime = 41.32 s  ClockTime = 41 s

Time = 45

smoothSolver:  Solving for Ux, Initial residual = 0.0204473, Final residual = 0.00118923, No Iterations 4
smoothSolver:  Solving for Uy, Initial residual = 0.0147851, Final residual = 0.000743936, No Iterations 4
smoothSolver:  Solving for Uz, Initial residual = 0.0149459, Final residual = 0.000756302, No Iterations 4
GAMG:  Solving for p, Initial residual = 0.0789526, Final residual = 0.00336369, No Iterations 2
time step continuity errors : sum local = 0.810439, global = -0.00857754, cumulative = -2.90963
smoothSolver:  Solving for omega, Initial residual = 0.000618013, Final residual = 4.48428e-05, No Iterations 3
smoothSolver:  Solving for k, Initial residual = 0.0425127, Final residual = 0.00355638, No Iterations 3
ExecutionTime = 42.21 s  ClockTime = 42 s

Time = 46

smoothSolver:  Solving for Ux, Initial residual = 0.019935, Final residual = 0.0011539, No Iterations 4
smoothSolver:  Solving for Uy, Initial residual = 0.0143183, Final residual = 0.000729938, No Iterations 4
smoothSolver:  Solving for Uz, Initial residual = 0.0146077, Final residual = 0.000746147, No Iterations 4
GAMG:  Solving for p, Initial residual = 0.0787917, Final residual = 0.00313863, No Iterations 2
time step continuity errors : sum local = 0.775652, global = -0.0746403, cumulative = -2.98427
smoothSolver:  Solving for omega, Initial residual = 0.000614343, Final residual = 4.41774e-05, No Iterations 3
smoothSolver:  Solving for k, Initial residual = 0.0439709, Final residual = 0.00361145, No Iterations 3
ExecutionTime = 43.1 s  ClockTime = 43 s

Time = 47

smoothSolver:  Solving for Ux, Initial residual = 0.0195059, Final residual = 0.00111908, No Iterations 4
smoothSolver:  Solving for Uy, Initial residual = 0.0139422, Final residual = 0.000718298, No Iterations 4
smoothSolver:  Solving for Uz, Initial residual = 0.0143225, Final residual = 0.000733284, No Iterations 4
GAMG:  Solving for p, Initial residual = 0.0784916, Final residual = 0.00296955, No Iterations 2
time step continuity errors : sum local = 0.756321, global = -0.0909947, cumulative = -3.07527
smoothSolver:  Solving for omega, Initial residual = 0.000618759, Final residual = 4.40143e-05, No Iterations 3
smoothSolver:  Solving for k, Initial residual = 0.0454192, Final residual = 0.00371173, No Iterations 3
ExecutionTime = 43.96 s  ClockTime = 44 s

Time = 48

smoothSolver:  Solving for Ux, Initial residual = 0.0191415, Final residual = 0.0010743, No Iterations 4
smoothSolver:  Solving for Uy, Initial residual = 0.01361, Final residual = 0.000705065, No Iterations 4
smoothSolver:  Solving for Uz, Initial residual = 0.0140795, Final residual = 0.000709969, No Iterations 4
GAMG:  Solving for p, Initial residual = 0.0764779, Final residual = 0.00287244, No Iterations 2
time step continuity errors : sum local = 0.735838, global = -0.0891186, cumulative = -3.16438
smoothSolver:  Solving for omega, Initial residual = 0.000617185, Final residual = 4.36893e-05, No Iterations 3
smoothSolver:  Solving for k, Initial residual = 0.0459248, Final residual = 0.00371563, No Iterations 3
ExecutionTime = 44.85 s  ClockTime = 45 s

Time = 49

smoothSolver:  Solving for Ux, Initial residual = 0.0186604, Final residual = 0.00102888, No Iterations 4
smoothSolver:  Solving for Uy, Initial residual = 0.0132658, Final residual = 0.000683579, No Iterations 4
smoothSolver:  Solving for Uz, Initial residual = 0.013744, Final residual = 0.000697438, No Iterations 4
GAMG:  Solving for p, Initial residual = 0.0735031, Final residual = 0.00286738, No Iterations 2
time step continuity errors : sum local = 0.742544, global = -0.0825001, cumulative = -3.24688
smoothSolver:  Solving for omega, Initial residual = 0.000612693, Final residual = 4.35644e-05, No Iterations 3
smoothSolver:  Solving for k, Initial residual = 0.0457309, Final residual = 0.00375527, No Iterations 3
ExecutionTime = 45.72 s  ClockTime = 46 s

Time = 50

smoothSolver:  Solving for Ux, Initial residual = 0.0180242, Final residual = 0.000982258, No Iterations 4
smoothSolver:  Solving for Uy, Initial residual = 0.0129611, Final residual = 0.000658445, No Iterations 4
smoothSolver:  Solving for Uz, Initial residual = 0.0134348, Final residual = 0.000685234, No Iterations 4
GAMG:  Solving for p, Initial residual = 0.0708688, Final residual = 0.00280924, No Iterations 2
time step continuity errors : sum local = 0.738099, global = -0.0818448, cumulative = -3.32873
smoothSolver:  Solving for omega, Initial residual = 0.000601928, Final residual = 4.22838e-05, No Iterations 3
smoothSolver:  Solving for k, Initial residual = 0.0448225, Final residual = 0.00374169, No Iterations 3
ExecutionTime = 46.6 s  ClockTime = 47 s

Time = 51

smoothSolver:  Solving for Ux, Initial residual = 0.0173151, Final residual = 0.00092649, No Iterations 4
smoothSolver:  Solving for Uy, Initial residual = 0.0126211, Final residual = 0.000630953, No Iterations 4
smoothSolver:  Solving for Uz, Initial residual = 0.0129981, Final residual = 0.000657156, No Iterations 4
GAMG:  Solving for p, Initial residual = 0.0683715, Final residual = 0.00256765, No Iterations 2
time step continuity errors : sum local = 0.688457, global = -0.0811292, cumulative = -3.40986
smoothSolver:  Solving for omega, Initial residual = 0.000584969, Final residual = 4.06037e-05, No Iterations 3
smoothSolver:  Solving for k, Initial residual = 0.0431692, Final residual = 0.00355169, No Iterations 3
ExecutionTime = 47.48 s  ClockTime = 48 s

Time = 52

smoothSolver:  Solving for Ux, Initial residual = 0.0165865, Final residual = 0.000869464, No Iterations 4
smoothSolver:  Solving for Uy, Initial residual = 0.0122407, Final residual = 0.000612606, No Iterations 4
smoothSolver:  Solving for Uz, Initial residual = 0.0124985, Final residual = 0.000618468, No Iterations 4
GAMG:  Solving for p, Initial residual = 0.0654218, Final residual = 0.00230377, No Iterations 2
time step continuity errors : sum local = 0.635866, global = -0.0738132, cumulative = -3.48367
smoothSolver:  Solving for omega, Initial residual = 0.000569037, Final residual = 3.93711e-05, No Iterations 3
smoothSolver:  Solving for k, Initial residual = 0.0412698, Final residual = 0.00334259, No Iterations 3
ExecutionTime = 48.37 s  ClockTime = 48 s

Time = 53

smoothSolver:  Solving for Ux, Initial residual = 0.0159004, Final residual = 0.000816333, No Iterations 4
smoothSolver:  Solving for Uy, Initial residual = 0.0118541, Final residual = 0.000602537, No Iterations 4
smoothSolver:  Solving for Uz, Initial residual = 0.0119188, Final residual = 0.000573756, No Iterations 4
GAMG:  Solving for p, Initial residual = 0.0617989, Final residual = 0.00211582, No Iterations 2
time step continuity errors : sum local = 0.606082, global = -0.0528606, cumulative = -3.53653
smoothSolver:  Solving for omega, Initial residual = 0.00054564, Final residual = 3.8214e-05, No Iterations 3
smoothSolver:  Solving for k, Initial residual = 0.0388327, Final residual = 0.0031195, No Iterations 3
ExecutionTime = 49.23 s  ClockTime = 49 s

Time = 54

smoothSolver:  Solving for Ux, Initial residual = 0.0151795, Final residual = 0.000762843, No Iterations 4
smoothSolver:  Solving for Uy, Initial residual = 0.0114327, Final residual = 0.000592292, No Iterations 4
smoothSolver:  Solving for Uz, Initial residual = 0.011274, Final residual = 0.000527208, No Iterations 4
GAMG:  Solving for p, Initial residual = 0.0586277, Final residual = 0.00195296, No Iterations 2
time step continuity errors : sum local = 0.580727, global = -0.0341598, cumulative = -3.57069
smoothSolver:  Solving for omega, Initial residual = 0.000529269, Final residual = 3.69216e-05, No Iterations 3
smoothSolver:  Solving for k, Initial residual = 0.0364626, Final residual = 0.0028744, No Iterations 3
ExecutionTime = 50.12 s  ClockTime = 50 s

Time = 55

smoothSolver:  Solving for Ux, Initial residual = 0.0144022, Final residual = 0.000706858, No Iterations 4
smoothSolver:  Solving for Uy, Initial residual = 0.0109617, Final residual = 0.000573226, No Iterations 4
smoothSolver:  Solving for Uz, Initial residual = 0.0106649, Final residual = 0.000497295, No Iterations 4
GAMG:  Solving for p, Initial residual = 0.0556039, Final residual = 0.00177281, No Iterations 2
time step continuity errors : sum local = 0.547954, global = -0.0251542, cumulative = -3.59585
smoothSolver:  Solving for omega, Initial residual = 0.000508335, Final residual = 3.52622e-05, No Iterations 3
smoothSolver:  Solving for k, Initial residual = 0.0340874, Final residual = 0.0026552, No Iterations 3
ExecutionTime = 51 s  ClockTime = 51 s

Time = 56

smoothSolver:  Solving for Ux, Initial residual = 0.0136585, Final residual = 0.000662071, No Iterations 4
smoothSolver:  Solving for Uy, Initial residual = 0.0103787, Final residual = 0.000537978, No Iterations 4
smoothSolver:  Solving for Uz, Initial residual = 0.0100668, Final residual = 0.000465851, No Iterations 4
GAMG:  Solving for p, Initial residual = 0.0525533, Final residual = 0.0016698, No Iterations 2
time step continuity errors : sum local = 0.530105, global = -0.0220108, cumulative = -3.61786
smoothSolver:  Solving for omega, Initial residual = 0.000487477, Final residual = 3.31539e-05, No Iterations 3
smoothSolver:  Solving for k, Initial residual = 0.031761, Final residual = 0.00241899, No Iterations 3
ExecutionTime = 51.88 s  ClockTime = 52 s

Time = 57

smoothSolver:  Solving for Ux, Initial residual = 0.0128956, Final residual = 0.000620878, No Iterations 4
smoothSolver:  Solving for Uy, Initial residual = 0.00978129, Final residual = 0.000497846, No Iterations 4
smoothSolver:  Solving for Uz, Initial residual = 0.00942189, Final residual = 0.000938075, No Iterations 3
GAMG:  Solving for p, Initial residual = 0.0507557, Final residual = 0.00168556, No Iterations 2
time step continuity errors : sum local = 0.533963, global = -0.000291206, cumulative = -3.61815
smoothSolver:  Solving for omega, Initial residual = 0.000462368, Final residual = 3.10353e-05, No Iterations 3
smoothSolver:  Solving for k, Initial residual = 0.0296222, Final residual = 0.00218652, No Iterations 3
ExecutionTime = 52.76 s  ClockTime = 53 s

Time = 58

smoothSolver:  Solving for Ux, Initial residual = 0.0121017, Final residual = 0.000571226, No Iterations 4
smoothSolver:  Solving for Uy, Initial residual = 0.00921169, Final residual = 0.000460358, No Iterations 4
smoothSolver:  Solving for Uz, Initial residual = 0.00886816, Final residual = 0.000854112, No Iterations 3
GAMG:  Solving for p, Initial residual = 0.0483289, Final residual = 0.00175065, No Iterations 2
time step continuity errors : sum local = 0.548669, global = 0.0222021, cumulative = -3.59595
smoothSolver:  Solving for omega, Initial residual = 0.000433137, Final residual = 2.91668e-05, No Iterations 3
smoothSolver:  Solving for k, Initial residual = 0.0274744, Final residual = 0.00196408, No Iterations 3
ExecutionTime = 53.62 s  ClockTime = 54 s

Time = 59

smoothSolver:  Solving for Ux, Initial residual = 0.0112453, Final residual = 0.000514992, No Iterations 4
smoothSolver:  Solving for Uy, Initial residual = 0.0086991, Final residual = 0.000425694, No Iterations 4
smoothSolver:  Solving for Uz, Initial residual = 0.00830137, Final residual = 0.000783808, No Iterations 3
GAMG:  Solving for p, Initial residual = 0.0452336, Final residual = 0.00173103, No Iterations 2
time step continuity errors : sum local = 0.551701, global = 0.0486687, cumulative = -3.54728
smoothSolver:  Solving for omega, Initial residual = 0.000408022, Final residual = 2.75968e-05, No Iterations 3
smoothSolver:  Solving for k, Initial residual = 0.0255688, Final residual = 0.00182441, No Iterations 3
ExecutionTime = 54.5 s  ClockTime = 55 s

Time = 60

smoothSolver:  Solving for Ux, Initial residual = 0.0103621, Final residual = 0.00100756, No Iterations 3
smoothSolver:  Solving for Uy, Initial residual = 0.00815442, Final residual = 0.000392019, No Iterations 4
smoothSolver:  Solving for Uz, Initial residual = 0.00773547, Final residual = 0.000733282, No Iterations 3
GAMG:  Solving for p, Initial residual = 0.0419939, Final residual = 0.00164963, No Iterations 2
time step continuity errors : sum local = 0.537355, global = 0.0672896, cumulative = -3.47999
smoothSolver:  Solving for omega, Initial residual = 0.000380062, Final residual = 2.5962e-05, No Iterations 3
smoothSolver:  Solving for k, Initial residual = 0.0233528, Final residual = 0.00172831, No Iterations 3
ExecutionTime = 55.36 s  ClockTime = 56 s

Time = 61

smoothSolver:  Solving for Ux, Initial residual = 0.00958914, Final residual = 0.000920121, No Iterations 3
smoothSolver:  Solving for Uy, Initial residual = 0.00764571, Final residual = 0.000357984, No Iterations 4
smoothSolver:  Solving for Uz, Initial residual = 0.00719739, Final residual = 0.000688482, No Iterations 3
GAMG:  Solving for p, Initial residual = 0.0392521, Final residual = 0.00145464, No Iterations 2
time step continuity errors : sum local = 0.488155, global = 0.0858782, cumulative = -3.39411
smoothSolver:  Solving for omega, Initial residual = 0.000356725, Final residual = 2.44329e-05, No Iterations 3
smoothSolver:  Solving for k, Initial residual = 0.0217718, Final residual = 0.00163151, No Iterations 3
ExecutionTime = 56.23 s  ClockTime = 56 s

Time = 62

smoothSolver:  Solving for Ux, Initial residual = 0.00880495, Final residual = 0.000827785, No Iterations 3
smoothSolver:  Solving for Uy, Initial residual = 0.00710343, Final residual = 0.000709371, No Iterations 3
smoothSolver:  Solving for Uz, Initial residual = 0.00664704, Final residual = 0.000640425, No Iterations 3
GAMG:  Solving for p, Initial residual = 0.0371331, Final residual = 0.00128025, No Iterations 2
time step continuity errors : sum local = 0.444833, global = 0.102874, cumulative = -3.29124
smoothSolver:  Solving for omega, Initial residual = 0.000336619, Final residual = 2.30881e-05, No Iterations 3
smoothSolver:  Solving for k, Initial residual = 0.0207046, Final residual = 0.00154214, No Iterations 3
ExecutionTime = 57.09 s  ClockTime = 57 s

Time = 63

smoothSolver:  Solving for Ux, Initial residual = 0.00805304, Final residual = 0.000745561, No Iterations 3
smoothSolver:  Solving for Uy, Initial residual = 0.00668552, Final residual = 0.000656384, No Iterations 3
smoothSolver:  Solving for Uz, Initial residual = 0.00614203, Final residual = 0.000597204, No Iterations 3
GAMG:  Solving for p, Initial residual = 0.0345129, Final residual = 0.00119348, No Iterations 2
time step continuity errors : sum local = 0.430573, global = 0.109882, cumulative = -3.18135
smoothSolver:  Solving for omega, Initial residual = 0.000314515, Final residual = 2.15589e-05, No Iterations 3
smoothSolver:  Solving for k, Initial residual = 0.0193604, Final residual = 0.0014374, No Iterations 3
ExecutionTime = 57.95 s  ClockTime = 58 s

Time = 64

smoothSolver:  Solving for Ux, Initial residual = 0.00732805, Final residual = 0.000675072, No Iterations 3
smoothSolver:  Solving for Uy, Initial residual = 0.00623299, Final residual = 0.000616408, No Iterations 3
smoothSolver:  Solving for Uz, Initial residual = 0.00565176, Final residual = 0.000544887, No Iterations 3
GAMG:  Solving for p, Initial residual = 0.0318569, Final residual = 0.00116027, No Iterations 2
time step continuity errors : sum local = 0.435149, global = 0.112442, cumulative = -3.06891
smoothSolver:  Solving for omega, Initial residual = 0.000295093, Final residual = 1.98885e-05, No Iterations 3
smoothSolver:  Solving for k, Initial residual = 0.0181859, Final residual = 0.00130526, No Iterations 3
ExecutionTime = 58.8 s  ClockTime = 59 s

Time = 65

smoothSolver:  Solving for Ux, Initial residual = 0.00668782, Final residual = 0.000616024, No Iterations 3
smoothSolver:  Solving for Uy, Initial residual = 0.00583755, Final residual = 0.000571255, No Iterations 3
smoothSolver:  Solving for Uz, Initial residual = 0.00519893, Final residual = 0.000493927, No Iterations 3
GAMG:  Solving for p, Initial residual = 0.0292025, Final residual = 0.00110184, No Iterations 2
time step continuity errors : sum local = 0.427337, global = 0.106501, cumulative = -2.96241
smoothSolver:  Solving for omega, Initial residual = 0.000273432, Final residual = 1.80602e-05, No Iterations 3
smoothSolver:  Solving for k, Initial residual = 0.0167935, Final residual = 0.00117006, No Iterations 3
ExecutionTime = 59.66 s  ClockTime = 60 s

Time = 66

smoothSolver:  Solving for Ux, Initial residual = 0.00612689, Final residual = 0.000561665, No Iterations 3
smoothSolver:  Solving for Uy, Initial residual = 0.0054343, Final residual = 0.000515029, No Iterations 3
smoothSolver:  Solving for Uz, Initial residual = 0.00479819, Final residual = 0.00045701, No Iterations 3
GAMG:  Solving for p, Initial residual = 0.0268492, Final residual = 0.00099601, No Iterations 2
time step continuity errors : sum local = 0.396538, global = 0.0973698, cumulative = -2.86504
smoothSolver:  Solving for omega, Initial residual = 0.00025361, Final residual = 1.64641e-05, No Iterations 3
smoothSolver:  Solving for k, Initial residual = 0.0156746, Final residual = 0.00106997, No Iterations 3
ExecutionTime = 60.51 s  ClockTime = 61 s

Time = 67

smoothSolver:  Solving for Ux, Initial residual = 0.00560617, Final residual = 0.000513878, No Iterations 3
smoothSolver:  Solving for Uy, Initial residual = 0.0050471, Final residual = 0.000459775, No Iterations 3
smoothSolver:  Solving for Uz, Initial residual = 0.0044466, Final residual = 0.000428777, No Iterations 3
GAMG:  Solving for p, Initial residual = 0.0245936, Final residual = 0.00090662, No Iterations 2
time step continuity errors : sum local = 0.366926, global = 0.0911426, cumulative = -2.7739
smoothSolver:  Solving for omega, Initial residual = 0.000231294, Final residual = 1.47749e-05, No Iterations 3
smoothSolver:  Solving for k, Initial residual = 0.0143498, Final residual = 0.00094355, No Iterations 3
ExecutionTime = 61.38 s  ClockTime = 62 s

Time = 68

smoothSolver:  Solving for Ux, Initial residual = 0.00517392, Final residual = 0.000477685, No Iterations 3
smoothSolver:  Solving for Uy, Initial residual = 0.00463173, Final residual = 0.0004134, No Iterations 3
smoothSolver:  Solving for Uz, Initial residual = 0.00416141, Final residual = 0.000398438, No Iterations 3
GAMG:  Solving for p, Initial residual = 0.0231014, Final residual = 0.000862634, No Iterations 2
time step continuity errors : sum local = 0.347621, global = 0.0762261, cumulative = -2.69767
smoothSolver:  Solving for omega, Initial residual = 0.000213416, Final residual = 1.32632e-05, No Iterations 3
smoothSolver:  Solving for k, Initial residual = 0.0132719, Final residual = 0.000837003, No Iterations 3
ExecutionTime = 62.23 s  ClockTime = 62 s

Time = 69

smoothSolver:  Solving for Ux, Initial residual = 0.0047638, Final residual = 0.000435496, No Iterations 3
smoothSolver:  Solving for Uy, Initial residual = 0.00422326, Final residual = 0.000374195, No Iterations 3
smoothSolver:  Solving for Uz, Initial residual = 0.00390934, Final residual = 0.000369921, No Iterations 3
GAMG:  Solving for p, Initial residual = 0.0214496, Final residual = 0.000838626, No Iterations 2
time step continuity errors : sum local = 0.337378, global = 0.054122, cumulative = -2.64355
smoothSolver:  Solving for omega, Initial residual = 0.000197525, Final residual = 1.22044e-05, No Iterations 3
smoothSolver:  Solving for k, Initial residual = 0.0122918, Final residual = 0.000735569, No Iterations 3
ExecutionTime = 63.09 s  ClockTime = 63 s

Time = 70

smoothSolver:  Solving for Ux, Initial residual = 0.00439829, Final residual = 0.000393978, No Iterations 3
smoothSolver:  Solving for Uy, Initial residual = 0.00385315, Final residual = 0.000336156, No Iterations 3
smoothSolver:  Solving for Uz, Initial residual = 0.00366478, Final residual = 0.000339726, No Iterations 3
GAMG:  Solving for p, Initial residual = 0.0196828, Final residual = 0.000821033, No Iterations 2
time step continuity errors : sum local = 0.331647, global = 0.0263397, cumulative = -2.61721
smoothSolver:  Solving for omega, Initial residual = 0.000183772, Final residual = 1.14245e-05, No Iterations 3
smoothSolver:  Solving for k, Initial residual = 0.0114456, Final residual = 0.0007016, No Iterations 3
ExecutionTime = 63.95 s  ClockTime = 64 s

Time = 71

smoothSolver:  Solving for Ux, Initial residual = 0.0040378, Final residual = 0.000366032, No Iterations 3
smoothSolver:  Solving for Uy, Initial residual = 0.00357451, Final residual = 0.000303826, No Iterations 3
smoothSolver:  Solving for Uz, Initial residual = 0.00344376, Final residual = 0.000317773, No Iterations 3
GAMG:  Solving for p, Initial residual = 0.0183373, Final residual = 0.000764645, No Iterations 2
time step continuity errors : sum local = 0.310857, global = 0.00286977, cumulative = -2.61434
smoothSolver:  Solving for omega, Initial residual = 0.000169369, Final residual = 1.08397e-05, No Iterations 3
smoothSolver:  Solving for k, Initial residual = 0.0105639, Final residual = 0.000676146, No Iterations 3
ExecutionTime = 64.8 s  ClockTime = 65 s

Time = 72

smoothSolver:  Solving for Ux, Initial residual = 0.00377, Final residual = 0.000340474, No Iterations 3
smoothSolver:  Solving for Uy, Initial residual = 0.00331926, Final residual = 0.000279105, No Iterations 3
smoothSolver:  Solving for Uz, Initial residual = 0.00320616, Final residual = 0.00029797, No Iterations 3
GAMG:  Solving for p, Initial residual = 0.0170543, Final residual = 0.000695139, No Iterations 2
time step continuity errors : sum local = 0.285389, global = -0.00676009, cumulative = -2.6211
smoothSolver:  Solving for omega, Initial residual = 0.000159059, Final residual = 1.03515e-05, No Iterations 3
smoothSolver:  Solving for k, Initial residual = 0.0100428, Final residual = 0.000666309, No Iterations 3
ExecutionTime = 65.66 s  ClockTime = 66 s

Time = 73

smoothSolver:  Solving for Ux, Initial residual = 0.00352993, Final residual = 0.000323236, No Iterations 3
smoothSolver:  Solving for Uy, Initial residual = 0.00308937, Final residual = 0.000262902, No Iterations 3
smoothSolver:  Solving for Uz, Initial residual = 0.00300012, Final residual = 0.000284097, No Iterations 3
GAMG:  Solving for p, Initial residual = 0.0164878, Final residual = 0.000657791, No Iterations 2
time step continuity errors : sum local = 0.273227, global = -0.00678707, cumulative = -2.62789
smoothSolver:  Solving for omega, Initial residual = 0.000148652, Final residual = 9.54536e-06, No Iterations 3
smoothSolver:  Solving for k, Initial residual = 0.00945054, Final residual = 0.000612919, No Iterations 3
ExecutionTime = 66.52 s  ClockTime = 67 s

Time = 74

smoothSolver:  Solving for Ux, Initial residual = 0.00331939, Final residual = 0.000305249, No Iterations 3
smoothSolver:  Solving for Uy, Initial residual = 0.00285612, Final residual = 0.000249499, No Iterations 3
smoothSolver:  Solving for Uz, Initial residual = 0.00282249, Final residual = 0.000267446, No Iterations 3
GAMG:  Solving for p, Initial residual = 0.0158809, Final residual = 0.000654778, No Iterations 2
time step continuity errors : sum local = 0.275924, global = 0.000759907, cumulative = -2.62713
smoothSolver:  Solving for omega, Initial residual = 0.000138852, Final residual = 8.97908e-06, No Iterations 3
smoothSolver:  Solving for k, Initial residual = 0.00897718, Final residual = 0.000583942, No Iterations 3
ExecutionTime = 67.37 s  ClockTime = 68 s

Time = 75

smoothSolver:  Solving for Ux, Initial residual = 0.00308822, Final residual = 0.00028032, No Iterations 3
smoothSolver:  Solving for Uy, Initial residual = 0.00260914, Final residual = 0.000229931, No Iterations 3
smoothSolver:  Solving for Uz, Initial residual = 0.00265482, Final residual = 0.000247219, No Iterations 3
GAMG:  Solving for p, Initial residual = 0.0152421, Final residual = 0.000645278, No Iterations 2
time step continuity errors : sum local = 0.274839, global = 0.0178725, cumulative = -2.60926
smoothSolver:  Solving for omega, Initial residual = 0.000130893, Final residual = 8.45448e-06, No Iterations 3
smoothSolver:  Solving for k, Initial residual = 0.00842127, Final residual = 0.000544902, No Iterations 3
ExecutionTime = 68.23 s  ClockTime = 68 s

Time = 76

smoothSolver:  Solving for Ux, Initial residual = 0.00284954, Final residual = 0.000258575, No Iterations 3
smoothSolver:  Solving for Uy, Initial residual = 0.00240852, Final residual = 0.000208261, No Iterations 3
smoothSolver:  Solving for Uz, Initial residual = 0.00250154, Final residual = 0.000229004, No Iterations 3
GAMG:  Solving for p, Initial residual = 0.0148483, Final residual = 0.000619897, No Iterations 2
time step continuity errors : sum local = 0.261151, global = 0.0375933, cumulative = -2.57166
smoothSolver:  Solving for omega, Initial residual = 0.000123149, Final residual = 7.91477e-06, No Iterations 3
smoothSolver:  Solving for k, Initial residual = 0.0079458, Final residual = 0.000514409, No Iterations 3
ExecutionTime = 69.09 s  ClockTime = 69 s

Time = 77

smoothSolver:  Solving for Ux, Initial residual = 0.00266008, Final residual = 0.000243796, No Iterations 3
smoothSolver:  Solving for Uy, Initial residual = 0.00227124, Final residual = 0.000188812, No Iterations 3
smoothSolver:  Solving for Uz, Initial residual = 0.00236256, Final residual = 0.000215584, No Iterations 3
GAMG:  Solving for p, Initial residual = 0.0143055, Final residual = 0.000582933, No Iterations 2
time step continuity errors : sum local = 0.241334, global = 0.049834, cumulative = -2.52183
smoothSolver:  Solving for omega, Initial residual = 0.000115009, Final residual = 7.52818e-06, No Iterations 3
smoothSolver:  Solving for k, Initial residual = 0.00744416, Final residual = 0.000497309, No Iterations 3
ExecutionTime = 69.95 s  ClockTime = 70 s

Time = 78

smoothSolver:  Solving for Ux, Initial residual = 0.00252599, Final residual = 0.000233084, No Iterations 3
smoothSolver:  Solving for Uy, Initial residual = 0.00217817, Final residual = 0.000179317, No Iterations 3
smoothSolver:  Solving for Uz, Initial residual = 0.00223026, Final residual = 0.000208919, No Iterations 3
GAMG:  Solving for p, Initial residual = 0.0138328, Final residual = 0.000542064, No Iterations 2
time step continuity errors : sum local = 0.220964, global = 0.0468032, cumulative = -2.47502
smoothSolver:  Solving for omega, Initial residual = 0.000108334, Final residual = 7.14316e-06, No Iterations 3
smoothSolver:  Solving for k, Initial residual = 0.00709685, Final residual = 0.00046828, No Iterations 3
ExecutionTime = 70.8 s  ClockTime = 71 s

Time = 79

smoothSolver:  Solving for Ux, Initial residual = 0.00237929, Final residual = 0.000220568, No Iterations 3
smoothSolver:  Solving for Uy, Initial residual = 0.00207446, Final residual = 0.000178814, No Iterations 3
smoothSolver:  Solving for Uz, Initial residual = 0.00212325, Final residual = 0.000201422, No Iterations 3
GAMG:  Solving for p, Initial residual = 0.0131131, Final residual = 0.000525048, No Iterations 2
time step continuity errors : sum local = 0.212898, global = 0.0334608, cumulative = -2.44156
smoothSolver:  Solving for omega, Initial residual = 0.00010196, Final residual = 6.65087e-06, No Iterations 3
smoothSolver:  Solving for k, Initial residual = 0.00671124, Final residual = 0.000433041, No Iterations 3
ExecutionTime = 71.67 s  ClockTime = 72 s

Time = 80

smoothSolver:  Solving for Ux, Initial residual = 0.00224967, Final residual = 0.000205063, No Iterations 3
smoothSolver:  Solving for Uy, Initial residual = 0.00197066, Final residual = 0.000174433, No Iterations 3
smoothSolver:  Solving for Uz, Initial residual = 0.00203007, Final residual = 0.000190336, No Iterations 3
GAMG:  Solving for p, Initial residual = 0.0121571, Final residual = 0.000521664, No Iterations 2
time step continuity errors : sum local = 0.212041, global = 0.0163413, cumulative = -2.42522
smoothSolver:  Solving for omega, Initial residual = 9.50158e-05, Final residual = 6.10046e-06, No Iterations 3
smoothSolver:  Solving for k, Initial residual = 0.00637808, Final residual = 0.000398822, No Iterations 3
ExecutionTime = 72.52 s  ClockTime = 73 s

Time = 81

smoothSolver:  Solving for Ux, Initial residual = 0.00209341, Final residual = 0.000191812, No Iterations 3
smoothSolver:  Solving for Uy, Initial residual = 0.0018597, Final residual = 0.000161677, No Iterations 3
smoothSolver:  Solving for Uz, Initial residual = 0.00193784, Final residual = 0.000181107, No Iterations 3
GAMG:  Solving for p, Initial residual = 0.0113557, Final residual = 0.000513904, No Iterations 2
time step continuity errors : sum local = 0.211412, global = 0.00106147, cumulative = -2.42416
smoothSolver:  Solving for omega, Initial residual = 9.08021e-05, Final residual = 5.88119e-06, No Iterations 3
smoothSolver:  Solving for k, Initial residual = 0.00620213, Final residual = 0.000392926, No Iterations 3
ExecutionTime = 73.37 s  ClockTime = 74 s

Time = 82

smoothSolver:  Solving for Ux, Initial residual = 0.00196286, Final residual = 0.000182251, No Iterations 3
smoothSolver:  Solving for Uy, Initial residual = 0.00174815, Final residual = 0.000146635, No Iterations 3
smoothSolver:  Solving for Uz, Initial residual = 0.00184111, Final residual = 0.000171441, No Iterations 3
GAMG:  Solving for p, Initial residual = 0.010851, Final residual = 0.000482733, No Iterations 2
time step continuity errors : sum local = 0.200461, global = -0.00985285, cumulative = -2.43401
smoothSolver:  Solving for omega, Initial residual = 8.64616e-05, Final residual = 5.62095e-06, No Iterations 3
smoothSolver:  Solving for k, Initial residual = 0.00595123, Final residual = 0.000388324, No Iterations 3
ExecutionTime = 74.24 s  ClockTime = 74 s

Time = 83

smoothSolver:  Solving for Ux, Initial residual = 0.00187621, Final residual = 0.000170739, No Iterations 3
smoothSolver:  Solving for Uy, Initial residual = 0.00165313, Final residual = 0.000134882, No Iterations 3
smoothSolver:  Solving for Uz, Initial residual = 0.00174273, Final residual = 0.000165727, No Iterations 3
GAMG:  Solving for p, Initial residual = 0.0105259, Final residual = 0.000450474, No Iterations 2
time step continuity errors : sum local = 0.189795, global = -0.0146294, cumulative = -2.44864
smoothSolver:  Solving for omega, Initial residual = 8.30309e-05, Final residual = 5.38703e-06, No Iterations 3
bounding omega, min: -7.10011 max: 1.21667e+06 average: 22311.3
smoothSolver:  Solving for k, Initial residual = 0.00580897, Final residual = 0.000368996, No Iterations 3
ExecutionTime = 75.12 s  ClockTime = 75 s

Time = 84

smoothSolver:  Solving for Ux, Initial residual = 0.00178329, Final residual = 0.00016308, No Iterations 3
smoothSolver:  Solving for Uy, Initial residual = 0.00157053, Final residual = 0.000131658, No Iterations 3
smoothSolver:  Solving for Uz, Initial residual = 0.00165872, Final residual = 0.000160957, No Iterations 3
GAMG:  Solving for p, Initial residual = 0.0101904, Final residual = 0.000422576, No Iterations 2
time step continuity errors : sum local = 0.181053, global = -0.0152326, cumulative = -2.46388
smoothSolver:  Solving for omega, Initial residual = 7.91841e-05, Final residual = 5.2519e-06, No Iterations 3
smoothSolver:  Solving for k, Initial residual = 0.0055941, Final residual = 0.000364076, No Iterations 3
ExecutionTime = 75.98 s  ClockTime = 76 s

Time = 85

smoothSolver:  Solving for Ux, Initial residual = 0.00172179, Final residual = 0.000156616, No Iterations 3
smoothSolver:  Solving for Uy, Initial residual = 0.00149693, Final residual = 0.000130118, No Iterations 3
smoothSolver:  Solving for Uz, Initial residual = 0.00158302, Final residual = 0.000153143, No Iterations 3
GAMG:  Solving for p, Initial residual = 0.00987752, Final residual = 0.000415311, No Iterations 2
time step continuity errors : sum local = 0.180741, global = -0.00984617, cumulative = -2.47372
smoothSolver:  Solving for omega, Initial residual = 7.60157e-05, Final residual = 5.09864e-06, No Iterations 3
smoothSolver:  Solving for k, Initial residual = 0.00549623, Final residual = 0.000371497, No Iterations 3
ExecutionTime = 76.83 s  ClockTime = 77 s

Time = 86

smoothSolver:  Solving for Ux, Initial residual = 0.00161533, Final residual = 0.000147218, No Iterations 3
smoothSolver:  Solving for Uy, Initial residual = 0.00142281, Final residual = 0.000124552, No Iterations 3
smoothSolver:  Solving for Uz, Initial residual = 0.00150538, Final residual = 0.000144739, No Iterations 3
GAMG:  Solving for p, Initial residual = 0.00955657, Final residual = 0.000413924, No Iterations 2
time step continuity errors : sum local = 0.182685, global = 0.00184438, cumulative = -2.47188
smoothSolver:  Solving for omega, Initial residual = 7.26429e-05, Final residual = 4.88361e-06, No Iterations 3
smoothSolver:  Solving for k, Initial residual = 0.00529954, Final residual = 0.000337773, No Iterations 3
ExecutionTime = 77.69 s  ClockTime = 78 s

Time = 87

smoothSolver:  Solving for Ux, Initial residual = 0.00151107, Final residual = 0.000138652, No Iterations 3
smoothSolver:  Solving for Uy, Initial residual = 0.00134754, Final residual = 0.000115816, No Iterations 3
smoothSolver:  Solving for Uz, Initial residual = 0.00143394, Final residual = 0.000135316, No Iterations 3
GAMG:  Solving for p, Initial residual = 0.00945558, Final residual = 0.000403209, No Iterations 2
time step continuity errors : sum local = 0.179092, global = 0.0149181, cumulative = -2.45696
smoothSolver:  Solving for omega, Initial residual = 7.15381e-05, Final residual = 4.74916e-06, No Iterations 3
smoothSolver:  Solving for k, Initial residual = 0.00517147, Final residual = 0.000331813, No Iterations 3
ExecutionTime = 78.55 s  ClockTime = 79 s

Time = 88

smoothSolver:  Solving for Ux, Initial residual = 0.0014276, Final residual = 0.000129673, No Iterations 3
smoothSolver:  Solving for Uy, Initial residual = 0.0012799, Final residual = 0.000107858, No Iterations 3
smoothSolver:  Solving for Uz, Initial residual = 0.00137207, Final residual = 0.000129578, No Iterations 3
GAMG:  Solving for p, Initial residual = 0.00929064, Final residual = 0.000380054, No Iterations 2
time step continuity errors : sum local = 0.16654, global = 0.02194, cumulative = -2.43502
smoothSolver:  Solving for omega, Initial residual = 6.85043e-05, Final residual = 4.57764e-06, No Iterations 3
smoothSolver:  Solving for k, Initial residual = 0.00484201, Final residual = 0.000309516, No Iterations 3
ExecutionTime = 79.41 s  ClockTime = 80 s

Time = 89

smoothSolver:  Solving for Ux, Initial residual = 0.00134426, Final residual = 0.000120596, No Iterations 3
smoothSolver:  Solving for Uy, Initial residual = 0.00121907, Final residual = 0.000102605, No Iterations 3
smoothSolver:  Solving for Uz, Initial residual = 0.00130926, Final residual = 0.000124722, No Iterations 3
GAMG:  Solving for p, Initial residual = 0.0090125, Final residual = 0.000356099, No Iterations 2
time step continuity errors : sum local = 0.153112, global = 0.0213593, cumulative = -2.41366
smoothSolver:  Solving for omega, Initial residual = 6.55228e-05, Final residual = 4.40834e-06, No Iterations 3
smoothSolver:  Solving for k, Initial residual = 0.00455721, Final residual = 0.000300021, No Iterations 3
ExecutionTime = 80.28 s  ClockTime = 80 s

Time = 90

smoothSolver:  Solving for Ux, Initial residual = 0.00127153, Final residual = 0.000111972, No Iterations 3
smoothSolver:  Solving for Uy, Initial residual = 0.00116385, Final residual = 9.92778e-05, No Iterations 3
smoothSolver:  Solving for Uz, Initial residual = 0.00125064, Final residual = 0.00011854, No Iterations 3
GAMG:  Solving for p, Initial residual = 0.00834389, Final residual = 0.000332942, No Iterations 2
time step continuity errors : sum local = 0.14125, global = 0.0150593, cumulative = -2.3986
smoothSolver:  Solving for omega, Initial residual = 6.20353e-05, Final residual = 4.19617e-06, No Iterations 3
smoothSolver:  Solving for k, Initial residual = 0.0043272, Final residual = 0.000290658, No Iterations 3
ExecutionTime = 81.13 s  ClockTime = 81 s

Time = 91

smoothSolver:  Solving for Ux, Initial residual = 0.00120268, Final residual = 0.000105634, No Iterations 3
smoothSolver:  Solving for Uy, Initial residual = 0.00111224, Final residual = 9.53313e-05, No Iterations 3
smoothSolver:  Solving for Uz, Initial residual = 0.00119915, Final residual = 0.000113408, No Iterations 3
GAMG:  Solving for p, Initial residual = 0.00777855, Final residual = 0.000327453, No Iterations 2
time step continuity errors : sum local = 0.13796, global = 0.00407049, cumulative = -2.39453
smoothSolver:  Solving for omega, Initial residual = 5.79202e-05, Final residual = 3.86259e-06, No Iterations 3
smoothSolver:  Solving for k, Initial residual = 0.00406863, Final residual = 0.00026218, No Iterations 3
ExecutionTime = 81.99 s  ClockTime = 82 s

Time = 92

smoothSolver:  Solving for Ux, Initial residual = 0.0011398, Final residual = 0.000102124, No Iterations 3
smoothSolver:  Solving for Uy, Initial residual = 0.00104444, Final residual = 8.85884e-05, No Iterations 3
smoothSolver:  Solving for Uz, Initial residual = 0.00113906, Final residual = 0.000107354, No Iterations 3
GAMG:  Solving for p, Initial residual = 0.00724798, Final residual = 0.000324782, No Iterations 2
time step continuity errors : sum local = 0.136892, global = -0.0052654, cumulative = -2.3998
smoothSolver:  Solving for omega, Initial residual = 5.50126e-05, Final residual = 3.6282e-06, No Iterations 3
smoothSolver:  Solving for k, Initial residual = 0.00397108, Final residual = 0.000252079, No Iterations 3
ExecutionTime = 82.85 s  ClockTime = 83 s

Time = 93

smoothSolver:  Solving for Ux, Initial residual = 0.0010862, Final residual = 9.71203e-05, No Iterations 3
smoothSolver:  Solving for Uy, Initial residual = 0.000980468, Final residual = 8.12981e-05, No Iterations 3
smoothSolver:  Solving for Uz, Initial residual = 0.00108339, Final residual = 0.00010122, No Iterations 3
GAMG:  Solving for p, Initial residual = 0.00676996, Final residual = 0.000299584, No Iterations 2
time step continuity errors : sum local = 0.126618, global = -0.0109348, cumulative = -2.41073
smoothSolver:  Solving for omega, Initial residual = 5.17334e-05, Final residual = 3.37408e-06, No Iterations 3
smoothSolver:  Solving for k, Initial residual = 0.0037329, Final residual = 0.000236176, No Iterations 3
ExecutionTime = 83.71 s  ClockTime = 84 s

Time = 94

smoothSolver:  Solving for Ux, Initial residual = 0.00102508, Final residual = 9.11972e-05, No Iterations 3
smoothSolver:  Solving for Uy, Initial residual = 0.000927154, Final residual = 7.69358e-05, No Iterations 3
smoothSolver:  Solving for Uz, Initial residual = 0.00102367, Final residual = 9.61129e-05, No Iterations 3
GAMG:  Solving for p, Initial residual = 0.00644086, Final residual = 0.000269315, No Iterations 2
time step continuity errors : sum local = 0.114578, global = -0.0123175, cumulative = -2.42305
smoothSolver:  Solving for omega, Initial residual = 4.95862e-05, Final residual = 3.31383e-06, No Iterations 3
smoothSolver:  Solving for k, Initial residual = 0.00366589, Final residual = 0.000243547, No Iterations 3
ExecutionTime = 84.57 s  ClockTime = 85 s

Time = 95

smoothSolver:  Solving for Ux, Initial residual = 0.000982831, Final residual = 8.73289e-05, No Iterations 3
smoothSolver:  Solving for Uy, Initial residual = 0.000883138, Final residual = 7.49849e-05, No Iterations 3
smoothSolver:  Solving for Uz, Initial residual = 0.000970711, Final residual = 9.30886e-05, No Iterations 3
GAMG:  Solving for p, Initial residual = 0.00613076, Final residual = 0.000248777, No Iterations 2
time step continuity errors : sum local = 0.106829, global = -0.00999411, cumulative = -2.43304
smoothSolver:  Solving for omega, Initial residual = 4.75775e-05, Final residual = 3.16972e-06, No Iterations 3
smoothSolver:  Solving for k, Initial residual = 0.00348076, Final residual = 0.000231619, No Iterations 3
ExecutionTime = 85.43 s  ClockTime = 86 s

Time = 96

smoothSolver:  Solving for Ux, Initial residual = 0.000920469, Final residual = 8.3074e-05, No Iterations 3
smoothSolver:  Solving for Uy, Initial residual = 0.000841241, Final residual = 7.1673e-05, No Iterations 3
smoothSolver:  Solving for Uz, Initial residual = 0.000917854, Final residual = 8.78405e-05, No Iterations 3
GAMG:  Solving for p, Initial residual = 0.00591645, Final residual = 0.000240475, No Iterations 2
time step continuity errors : sum local = 0.104386, global = -0.00299972, cumulative = -2.43604
smoothSolver:  Solving for omega, Initial residual = 4.58278e-05, Final residual = 3.08484e-06, No Iterations 3
smoothSolver:  Solving for k, Initial residual = 0.00343619, Final residual = 0.000234632, No Iterations 3
ExecutionTime = 86.28 s  ClockTime = 86 s

Time = 97

smoothSolver:  Solving for Ux, Initial residual = 0.000865847, Final residual = 7.75694e-05, No Iterations 3
smoothSolver:  Solving for Uy, Initial residual = 0.000797626, Final residual = 6.79605e-05, No Iterations 3
smoothSolver:  Solving for Uz, Initial residual = 0.000866125, Final residual = 8.17353e-05, No Iterations 3
GAMG:  Solving for p, Initial residual = 0.00572298, Final residual = 0.000240976, No Iterations 2
time step continuity errors : sum local = 0.105834, global = 0.00517448, cumulative = -2.43087
smoothSolver:  Solving for omega, Initial residual = 4.40199e-05, Final residual = 2.97338e-06, No Iterations 3
smoothSolver:  Solving for k, Initial residual = 0.003266, Final residual = 0.000212111, No Iterations 3
ExecutionTime = 87.15 s  ClockTime = 87 s

Time = 98

smoothSolver:  Solving for Ux, Initial residual = 0.000811918, Final residual = 7.18445e-05, No Iterations 3
smoothSolver:  Solving for Uy, Initial residual = 0.000759438, Final residual = 6.47186e-05, No Iterations 3
smoothSolver:  Solving for Uz, Initial residual = 0.000815491, Final residual = 7.60185e-05, No Iterations 3
GAMG:  Solving for p, Initial residual = 0.005553, Final residual = 0.000228473, No Iterations 2
time step continuity errors : sum local = 0.101439, global = 0.0115276, cumulative = -2.41934
smoothSolver:  Solving for omega, Initial residual = 4.26646e-05, Final residual = 2.76787e-06, No Iterations 3
smoothSolver:  Solving for k, Initial residual = 0.0032543, Final residual = 0.000209262, No Iterations 3
ExecutionTime = 88.01 s  ClockTime = 88 s

Time = 99

smoothSolver:  Solving for Ux, Initial residual = 0.000756355, Final residual = 6.7129e-05, No Iterations 3
smoothSolver:  Solving for Uy, Initial residual = 0.000721055, Final residual = 6.25961e-05, No Iterations 3
smoothSolver:  Solving for Uz, Initial residual = 0.000766418, Final residual = 7.13419e-05, No Iterations 3
GAMG:  Solving for p, Initial residual = 0.00530652, Final residual = 0.000204328, No Iterations 2
time step continuity errors : sum local = 0.091389, global = 0.0144615, cumulative = -2.40488
smoothSolver:  Solving for omega, Initial residual = 4.05044e-05, Final residual = 2.81314e-06, No Iterations 3
smoothSolver:  Solving for k, Initial residual = 0.00309338, Final residual = 0.000211765, No Iterations 3
ExecutionTime = 88.87 s  ClockTime = 89 s

Time = 100

smoothSolver:  Solving for Ux, Initial residual = 0.000719301, Final residual = 6.40933e-05, No Iterations 3
smoothSolver:  Solving for Uy, Initial residual = 0.000685483, Final residual = 5.98744e-05, No Iterations 3
smoothSolver:  Solving for Uz, Initial residual = 0.000724976, Final residual = 6.79982e-05, No Iterations 3
[...]
smoothSolver:  Solving for Uy, Initial residual = 1.61202e-06, Final residual = 1.37688e-07, No Iterations 3
smoothSolver:  Solving for Uz, Initial residual = 1.18399e-06, Final residual = 9.95185e-08, No Iterations 3
GAMG:  Solving for p, Initial residual = 1.28151e-05, Final residual = 9.77927e-07, No Iterations 2
time step continuity errors : sum local = 0.000437072, global = -4.09482e-05, cumulative = -2.35363
smoothSolver:  Solving for omega, Initial residual = 7.73008e-07, Final residual = 2.8693e-08, No Iterations 3
smoothSolver:  Solving for k, Initial residual = 1.50122e-06, Final residual = 6.02852e-08, No Iterations 3
ExecutionTime = 244.87 s  ClockTime = 245 s

Time = 277

smoothSolver:  Solving for Ux, Initial residual = 1.83514e-06, Final residual = 1.52879e-07, No Iterations 3
smoothSolver:  Solving for Uy, Initial residual = 1.56334e-06, Final residual = 1.34456e-07, No Iterations 3
smoothSolver:  Solving for Uz, Initial residual = 1.18144e-06, Final residual = 9.62746e-08, No Iterations 3
GAMG:  Solving for p, Initial residual = 1.1456e-05, Final residual = 9.17858e-07, No Iterations 2
time step continuity errors : sum local = 0.000410246, global = 3.1206e-05, cumulative = -2.3536
smoothSolver:  Solving for omega, Initial residual = 7.85983e-07, Final residual = 2.98653e-08, No Iterations 3
smoothSolver:  Solving for k, Initial residual = 1.48726e-06, Final residual = 5.9684e-08, No Iterations 3
ExecutionTime = 245.74 s  ClockTime = 246 s

Time = 278

smoothSolver:  Solving for Ux, Initial residual = 2.06066e-06, Final residual = 1.78322e-07, No Iterations 3
smoothSolver:  Solving for Uy, Initial residual = 1.60832e-06, Final residual = 1.43773e-07, No Iterations 3
smoothSolver:  Solving for Uz, Initial residual = 1.15539e-06, Final residual = 1.01758e-07, No Iterations 3
GAMG:  Solving for p, Initial residual = 1.25343e-05, Final residual = 9.80439e-07, No Iterations 2
time step continuity errors : sum local = 0.000438204, global = -2.70504e-05, cumulative = -2.35363
smoothSolver:  Solving for omega, Initial residual = 7.87939e-07, Final residual = 2.91353e-08, No Iterations 3
smoothSolver:  Solving for k, Initial residual = 1.47696e-06, Final residual = 5.74175e-08, No Iterations 3
ExecutionTime = 246.6 s  ClockTime = 247 s

Time = 279

smoothSolver:  Solving for Ux, Initial residual = 1.80916e-06, Final residual = 1.42897e-07, No Iterations 3
smoothSolver:  Solving for Uy, Initial residual = 1.55379e-06, Final residual = 1.30422e-07, No Iterations 3
smoothSolver:  Solving for Uz, Initial residual = 1.18379e-06, Final residual = 8.9853e-08, No Iterations 3
GAMG:  Solving for p, Initial residual = 1.1952e-05, Final residual = 9.64963e-07, No Iterations 2
time step continuity errors : sum local = 0.000431301, global = 4.63544e-05, cumulative = -2.35358
smoothSolver:  Solving for omega, Initial residual = 7.71138e-07, Final residual = 3.03577e-08, No Iterations 3
smoothSolver:  Solving for k, Initial residual = 1.45818e-06, Final residual = 5.77664e-08, No Iterations 3
ExecutionTime = 247.45 s  ClockTime = 248 s

Time = 280

smoothSolver:  Solving for Ux, Initial residual = 2.07528e-06, Final residual = 1.80381e-07, No Iterations 3
smoothSolver:  Solving for Uy, Initial residual = 1.60706e-06, Final residual = 1.34144e-07, No Iterations 3
smoothSolver:  Solving for Uz, Initial residual = 1.16395e-06, Final residual = 9.64512e-08, No Iterations 3
GAMG:  Solving for p, Initial residual = 1.26369e-05, Final residual = 9.83236e-07, No Iterations 2
time step continuity errors : sum local = 0.000439446, global = -1.77102e-05, cumulative = -2.3536
smoothSolver:  Solving for omega, Initial residual = 7.65642e-07, Final residual = 2.88671e-08, No Iterations 3
smoothSolver:  Solving for k, Initial residual = 1.45859e-06, Final residual = 5.75293e-08, No Iterations 3
ExecutionTime = 248.31 s  ClockTime = 249 s

Time = 281

smoothSolver:  Solving for Ux, Initial residual = 1.80874e-06, Final residual = 1.4874e-07, No Iterations 3
smoothSolver:  Solving for Uy, Initial residual = 1.52139e-06, Final residual = 1.28074e-07, No Iterations 3
smoothSolver:  Solving for Uz, Initial residual = 1.16436e-06, Final residual = 9.13085e-08, No Iterations 3
GAMG:  Solving for p, Initial residual = 1.13353e-05, Final residual = 9.09375e-07, No Iterations 2
time step continuity errors : sum local = 0.000406445, global = 4.61453e-05, cumulative = -2.35355
smoothSolver:  Solving for omega, Initial residual = 7.60107e-07, Final residual = 2.94973e-08, No Iterations 3
smoothSolver:  Solving for k, Initial residual = 1.44283e-06, Final residual = 5.74436e-08, No Iterations 3
ExecutionTime = 249.17 s  ClockTime = 250 s

Time = 282

smoothSolver:  Solving for Ux, Initial residual = 2.04662e-06, Final residual = 1.81989e-07, No Iterations 3
smoothSolver:  Solving for Uy, Initial residual = 1.57985e-06, Final residual = 1.43229e-07, No Iterations 3
smoothSolver:  Solving for Uz, Initial residual = 1.15304e-06, Final residual = 1.03339e-07, No Iterations 3
GAMG:  Solving for p, Initial residual = 1.22407e-05, Final residual = 9.51739e-07, No Iterations 2
time step continuity errors : sum local = 0.000425358, global = -2.68597e-05, cumulative = -2.35358
smoothSolver:  Solving for omega, Initial residual = 7.79494e-07, Final residual = 2.89065e-08, No Iterations 3
smoothSolver:  Solving for k, Initial residual = 1.43905e-06, Final residual = 5.56884e-08, No Iterations 3
ExecutionTime = 250.03 s  ClockTime = 251 s

Time = 283

smoothSolver:  Solving for Ux, Initial residual = 1.76016e-06, Final residual = 1.41248e-07, No Iterations 3
smoothSolver:  Solving for Uy, Initial residual = 1.51621e-06, Final residual = 1.30808e-07, No Iterations 3
smoothSolver:  Solving for Uz, Initial residual = 1.13242e-06, Final residual = 8.96844e-08, No Iterations 3
GAMG:  Solving for p, Initial residual = 1.14701e-05, Final residual = 9.34411e-07, No Iterations 2
time step continuity errors : sum local = 0.000417628, global = 3.14784e-05, cumulative = -2.35355
smoothSolver:  Solving for omega, Initial residual = 7.77704e-07, Final residual = 3.0036e-08, No Iterations 3
smoothSolver:  Solving for k, Initial residual = 1.42305e-06, Final residual = 5.50938e-08, No Iterations 3
ExecutionTime = 250.89 s  ClockTime = 251 s

Time = 284

smoothSolver:  Solving for Ux, Initial residual = 2.04078e-06, Final residual = 1.76493e-07, No Iterations 3
smoothSolver:  Solving for Uy, Initial residual = 1.5795e-06, Final residual = 1.36091e-07, No Iterations 3
smoothSolver:  Solving for Uz, Initial residual = 1.15386e-06, Final residual = 9.60812e-08, No Iterations 3
GAMG:  Solving for p, Initial residual = 1.2726e-05, Final residual = 9.98424e-07, No Iterations 2
time step continuity errors : sum local = 0.000446224, global = -4.12585e-05, cumulative = -2.35359
smoothSolver:  Solving for omega, Initial residual = 7.70367e-07, Final residual = 2.91053e-08, No Iterations 3
smoothSolver:  Solving for k, Initial residual = 1.41891e-06, Final residual = 5.50384e-08, No Iterations 3
ExecutionTime = 251.75 s  ClockTime = 252 s

Time = 285

smoothSolver:  Solving for Ux, Initial residual = 1.80865e-06, Final residual = 1.46867e-07, No Iterations 3
smoothSolver:  Solving for Uy, Initial residual = 1.50802e-06, Final residual = 1.2421e-07, No Iterations 3
smoothSolver:  Solving for Uz, Initial residual = 1.1406e-06, Final residual = 8.66483e-08, No Iterations 3
GAMG:  Solving for p, Initial residual = 1.17997e-05, Final residual = 9.25303e-07, No Iterations 2
time step continuity errors : sum local = 0.000413566, global = 2.41091e-05, cumulative = -2.35356
smoothSolver:  Solving for omega, Initial residual = 7.70736e-07, Final residual = 2.99291e-08, No Iterations 3
smoothSolver:  Solving for k, Initial residual = 1.41654e-06, Final residual = 5.59203e-08, No Iterations 3
ExecutionTime = 252.62 s  ClockTime = 253 s

Time = 286

smoothSolver:  Solving for Ux, Initial residual = 2.0475e-06, Final residual = 1.83171e-07, No Iterations 3
smoothSolver:  Solving for Uy, Initial residual = 1.58268e-06, Final residual = 1.37901e-07, No Iterations 3
smoothSolver:  Solving for Uz, Initial residual = 1.15551e-06, Final residual = 1.00491e-07, No Iterations 3
GAMG:  Solving for p, Initial residual = 1.22216e-05, Final residual = 9.46875e-07, No Iterations 2
time step continuity errors : sum local = 0.000423198, global = -3.77914e-05, cumulative = -2.3536
smoothSolver:  Solving for omega, Initial residual = 7.74152e-07, Final residual = 2.84806e-08, No Iterations 3
smoothSolver:  Solving for k, Initial residual = 1.41594e-06, Final residual = 5.50235e-08, No Iterations 3
ExecutionTime = 253.48 s  ClockTime = 254 s

Time = 287

smoothSolver:  Solving for Ux, Initial residual = 1.80029e-06, Final residual = 1.47052e-07, No Iterations 3
smoothSolver:  Solving for Uy, Initial residual = 1.52094e-06, Final residual = 1.33802e-07, No Iterations 3
smoothSolver:  Solving for Uz, Initial residual = 1.14337e-06, Final residual = 9.4253e-08, No Iterations 3
GAMG:  Solving for p, Initial residual = 1.13136e-05, Final residual = 9.10261e-07, No Iterations 2
time step continuity errors : sum local = 0.000406853, global = 3.56549e-05, cumulative = -2.35357
smoothSolver:  Solving for omega, Initial residual = 7.91345e-07, Final residual = 3.00619e-08, No Iterations 3
smoothSolver:  Solving for k, Initial residual = 1.40252e-06, Final residual = 5.42408e-08, No Iterations 3
ExecutionTime = 254.33 s  ClockTime = 255 s

Time = 288

smoothSolver:  Solving for Ux, Initial residual = 2.0286e-06, Final residual = 1.74272e-07, No Iterations 3
smoothSolver:  Solving for Uy, Initial residual = 1.58431e-06, Final residual = 1.39064e-07, No Iterations 3
smoothSolver:  Solving for Uz, Initial residual = 1.1417e-06, Final residual = 9.63049e-08, No Iterations 3
GAMG:  Solving for p, Initial residual = 1.26801e-05, Final residual = 9.83504e-07, No Iterations 2
time step continuity errors : sum local = 0.000439573, global = -2.35456e-05, cumulative = -2.35359
smoothSolver:  Solving for omega, Initial residual = 7.76925e-07, Final residual = 2.92055e-08, No Iterations 3
smoothSolver:  Solving for k, Initial residual = 1.39652e-06, Final residual = 5.27111e-08, No Iterations 3
ExecutionTime = 255.19 s  ClockTime = 256 s

Time = 289

smoothSolver:  Solving for Ux, Initial residual = 1.79979e-06, Final residual = 1.42717e-07, No Iterations 3
smoothSolver:  Solving for Uy, Initial residual = 1.52321e-06, Final residual = 1.24374e-07, No Iterations 3
smoothSolver:  Solving for Uz, Initial residual = 1.1577e-06, Final residual = 8.78623e-08, No Iterations 3
GAMG:  Solving for p, Initial residual = 1.16035e-05, Final residual = 9.37406e-07, No Iterations 2
time step continuity errors : sum local = 0.000418981, global = 4.76497e-05, cumulative = -2.35354
smoothSolver:  Solving for omega, Initial residual = 7.71117e-07, Final residual = 3.00509e-08, No Iterations 3
smoothSolver:  Solving for k, Initial residual = 1.38766e-06, Final residual = 5.39611e-08, No Iterations 3
ExecutionTime = 256.05 s  ClockTime = 257 s

Time = 290

smoothSolver:  Solving for Ux, Initial residual = 2.0486e-06, Final residual = 1.80805e-07, No Iterations 3
smoothSolver:  Solving for Uy, Initial residual = 1.5659e-06, Final residual = 1.33427e-07, No Iterations 3
smoothSolver:  Solving for Uz, Initial residual = 1.13475e-06, Final residual = 9.44538e-08, No Iterations 3
GAMG:  Solving for p, Initial residual = 1.22839e-05, Final residual = 9.40648e-07, No Iterations 2
time step continuity errors : sum local = 0.000420409, global = -1.91053e-05, cumulative = -2.35356
smoothSolver:  Solving for omega, Initial residual = 7.61287e-07, Final residual = 2.83356e-08, No Iterations 3
smoothSolver:  Solving for k, Initial residual = 1.38653e-06, Final residual = 5.31134e-08, No Iterations 3
ExecutionTime = 256.91 s  ClockTime = 257 s

Time = 291

smoothSolver:  Solving for Ux, Initial residual = 1.77302e-06, Final residual = 1.46792e-07, No Iterations 3
smoothSolver:  Solving for Uy, Initial residual = 1.49509e-06, Final residual = 1.29945e-07, No Iterations 3
smoothSolver:  Solving for Uz, Initial residual = 1.13782e-06, Final residual = 9.28363e-08, No Iterations 3
GAMG:  Solving for p, Initial residual = 1.11025e-05, Final residual = 8.89839e-07, No Iterations 2
time step continuity errors : sum local = 0.00039771, global = 4.21685e-05, cumulative = -2.35352
smoothSolver:  Solving for omega, Initial residual = 7.70567e-07, Final residual = 2.97852e-08, No Iterations 3
smoothSolver:  Solving for k, Initial residual = 1.37471e-06, Final residual = 5.31425e-08, No Iterations 3
ExecutionTime = 257.78 s  ClockTime = 258 s

Time = 292

smoothSolver:  Solving for Ux, Initial residual = 2.00548e-06, Final residual = 1.7594e-07, No Iterations 3
smoothSolver:  Solving for Uy, Initial residual = 1.55322e-06, Final residual = 1.40117e-07, No Iterations 3
smoothSolver:  Solving for Uz, Initial residual = 1.11776e-06, Final residual = 9.91955e-08, No Iterations 3
GAMG:  Solving for p, Initial residual = 1.2117e-05, Final residual = 9.50744e-07, No Iterations 2
time step continuity errors : sum local = 0.000424912, global = -3.20371e-05, cumulative = -2.35355
smoothSolver:  Solving for omega, Initial residual = 7.79107e-07, Final residual = 2.89322e-08, No Iterations 3
smoothSolver:  Solving for k, Initial residual = 1.37105e-06, Final residual = 5.15803e-08, No Iterations 3
ExecutionTime = 258.62 s  ClockTime = 259 s

Time = 293

smoothSolver:  Solving for Ux, Initial residual = 1.75076e-06, Final residual = 1.39898e-07, No Iterations 3
smoothSolver:  Solving for Uy, Initial residual = 1.49998e-06, Final residual = 1.26468e-07, No Iterations 3
smoothSolver:  Solving for Uz, Initial residual = 1.12193e-06, Final residual = 8.54107e-08, No Iterations 3
GAMG:  Solving for p, Initial residual = 1.15341e-05, Final residual = 9.28986e-07, No Iterations 2
time step continuity errors : sum local = 0.000415205, global = 2.75963e-05, cumulative = -2.35352
smoothSolver:  Solving for omega, Initial residual = 7.68533e-07, Final residual = 3.00174e-08, No Iterations 3
smoothSolver:  Solving for k, Initial residual = 1.36186e-06, Final residual = 5.18666e-08, No Iterations 3
ExecutionTime = 259.48 s  ClockTime = 260 s

Time = 294

smoothSolver:  Solving for Ux, Initial residual = 2.0325e-06, Final residual = 1.77389e-07, No Iterations 3
smoothSolver:  Solving for Uy, Initial residual = 1.5501e-06, Final residual = 1.30813e-07, No Iterations 3
smoothSolver:  Solving for Uz, Initial residual = 1.13223e-06, Final residual = 9.51974e-08, No Iterations 3
GAMG:  Solving for p, Initial residual = 1.25849e-05, Final residual = 9.71459e-07, No Iterations 2
time step continuity errors : sum local = 0.000434176, global = -4.21717e-05, cumulative = -2.35356
smoothSolver:  Solving for omega, Initial residual = 7.65051e-07, Final residual = 2.89308e-08, No Iterations 3
smoothSolver:  Solving for k, Initial residual = 1.36541e-06, Final residual = 5.20155e-08, No Iterations 3
ExecutionTime = 260.35 s  ClockTime = 261 s

Time = 295

smoothSolver:  Solving for Ux, Initial residual = 1.78445e-06, Final residual = 1.48183e-07, No Iterations 3
smoothSolver:  Solving for Uy, Initial residual = 1.50007e-06, Final residual = 1.25844e-07, No Iterations 3
smoothSolver:  Solving for Uz, Initial residual = 1.12749e-06, Final residual = 8.69661e-08, No Iterations 3
GAMG:  Solving for p, Initial residual = 1.13403e-05, Final residual = 8.88356e-07, No Iterations 2
time step continuity errors : sum local = 0.000397056, global = 2.62853e-05, cumulative = -2.35354
smoothSolver:  Solving for omega, Initial residual = 7.6604e-07, Final residual = 2.93556e-08, No Iterations 3
smoothSolver:  Solving for k, Initial residual = 1.36217e-06, Final residual = 5.24004e-08, No Iterations 3
ExecutionTime = 261.21 s  ClockTime = 262 s

Time = 296

smoothSolver:  Solving for Ux, Initial residual = 2.0329e-06, Final residual = 1.81254e-07, No Iterations 3
smoothSolver:  Solving for Uy, Initial residual = 1.5631e-06, Final residual = 1.39395e-07, No Iterations 3
smoothSolver:  Solving for Uz, Initial residual = 1.13067e-06, Final residual = 1.01199e-07, No Iterations 3
GAMG:  Solving for p, Initial residual = 1.20394e-05, Final residual = 9.29643e-07, No Iterations 2
time step continuity errors : sum local = 0.000415499, global = -3.32439e-05, cumulative = -2.35357
smoothSolver:  Solving for omega, Initial residual = 7.85676e-07, Final residual = 2.87785e-08, No Iterations 3
smoothSolver:  Solving for k, Initial residual = 1.35887e-06, Final residual = 5.11348e-08, No Iterations 3
ExecutionTime = 262.07 s  ClockTime = 263 s

Time = 297

smoothSolver:  Solving for Ux, Initial residual = 1.75665e-06, Final residual = 1.40069e-07, No Iterations 3
smoothSolver:  Solving for Uy, Initial residual = 1.49629e-06, Final residual = 1.30471e-07, No Iterations 3
smoothSolver:  Solving for Uz, Initial residual = 1.12456e-06, Final residual = 8.98138e-08, No Iterations 3
GAMG:  Solving for p, Initial residual = 1.13897e-05, Final residual = 9.13526e-07, No Iterations 2
time step continuity errors : sum local = 0.000408313, global = 4.08169e-05, cumulative = -2.35353
smoothSolver:  Solving for omega, Initial residual = 7.77728e-07, Final residual = 3.00529e-08, No Iterations 3
smoothSolver:  Solving for k, Initial residual = 1.34722e-06, Final residual = 5.07924e-08, No Iterations 3
ExecutionTime = 262.94 s  ClockTime = 264 s

Time = 298

smoothSolver:  Solving for Ux, Initial residual = 2.02893e-06, Final residual = 1.74688e-07, No Iterations 3
smoothSolver:  Solving for Uy, Initial residual = 1.56526e-06, Final residual = 1.34503e-07, No Iterations 3
smoothSolver:  Solving for Uz, Initial residual = 1.1295e-06, Final residual = 9.2929e-08, No Iterations 3
GAMG:  Solving for p, Initial residual = 1.24742e-05, Final residual = 9.68989e-07, No Iterations 2
time step continuity errors : sum local = 0.000433083, global = -2.0109e-05, cumulative = -2.35355
smoothSolver:  Solving for omega, Initial residual = 7.66774e-07, Final residual = 2.90578e-08, No Iterations 3
smoothSolver:  Solving for k, Initial residual = 1.3446e-06, Final residual = 5.01307e-08, No Iterations 3
ExecutionTime = 263.81 s  ClockTime = 264 s

Time = 299

smoothSolver:  Solving for Ux, Initial residual = 1.77338e-06, Final residual = 1.43268e-07, No Iterations 3
smoothSolver:  Solving for Uy, Initial residual = 1.48256e-06, Final residual = 1.20729e-07, No Iterations 3
smoothSolver:  Solving for Uz, Initial residual = 1.1345e-06, Final residual = 8.61611e-08, No Iterations 3
GAMG:  Solving for p, Initial residual = 1.1328e-05, Final residual = 9.00559e-07, No Iterations 2
time step continuity errors : sum local = 0.000402509, global = 4.80671e-05, cumulative = -2.3535
smoothSolver:  Solving for omega, Initial residual = 7.58391e-07, Final residual = 2.96368e-08, No Iterations 3
smoothSolver:  Solving for k, Initial residual = 1.33962e-06, Final residual = 5.10281e-08, No Iterations 3
ExecutionTime = 264.66 s  ClockTime = 265 s

Time = 300

smoothSolver:  Solving for Ux, Initial residual = 2.01704e-06, Final residual = 1.80285e-07, No Iterations 3
smoothSolver:  Solving for Uy, Initial residual = 1.54242e-06, Final residual = 1.36113e-07, No Iterations 3
smoothSolver:  Solving for Uz, Initial residual = 1.11483e-06, Final residual = 9.6854e-08, No Iterations 3
GAMG:  Solving for p, Initial residual = 1.19022e-05, Final residual = 9.13226e-07, No Iterations 2
time step continuity errors : sum local = 0.000408149, global = -2.1523e-05, cumulative = -2.35352
smoothSolver:  Solving for omega, Initial residual = 7.61045e-07, Final residual = 2.84429e-08, No Iterations 3
smoothSolver:  Solving for k, Initial residual = 1.34074e-06, Final residual = 5.00141e-08, No Iterations 3
ExecutionTime = 267.44 s  ClockTime = 268 s

End

