/*---------------------------------------------------------------------------*\
  =========                 |
  \\      /  F ield         | OpenFOAM: The Open Source CFD Toolbox
   \\    /   O peration     | Website:  https://openfoam.org
    \\  /    A nd           | Version:  7
     \\/     M anipulation  |
\*---------------------------------------------------------------------------*/
Build  : 7-ca808c8420bf
Exec   : simpleFoam
Date   : Jun 17 2020
Time   : 11:40:53
Host   : "nathan-XPS-15-9570"
PID    : 15233
I/O    : uncollated
Case   : /home/nathan/Documents/github/BlenderFOAM/tutorials/2d_airfoil_shape_optimization/initial
nProcs : 1
sigFpe : Enabling floating point exception trapping (FOAM_SIGFPE).
fileModificationChecking : Monitoring run-time modified files using timeStampMaster (fileModificationSkew 10)
allowSystemOperations : Allowing user-supplied system call operations

// * * * * * * * * * * * * * * * * * * * * * * * * * * * * * * * * * * * * * //
Create time

Create mesh for time = 0


SIMPLE: Convergence criteria found
        p: tolerance 1e-05
        U: tolerance 1e-05
        nuTilda: tolerance 1e-05

Reading field p

Reading field U

Reading/calculating face flux field phi

Selecting incompressible transport model Newtonian
Selecting turbulence model type RAS
Selecting RAS turbulence model SpalartAllmaras
Selecting patchDistMethod meshWave
RAS
{
    RASModel        SpalartAllmaras;
    turbulence      on;
    printCoeffs     on;
    sigmaNut        0.66666;
    kappa           0.41;
    Cb1             0.1355;
    Cb2             0.622;
    Cw2             0.3;
    Cw3             2;
    Cv1             7.1;
    Cs              0.3;
}

No MRF models present

No finite volume options present

Starting time loop

Time = 1

smoothSolver:  Solving for Ux, Initial residual = 1, Final residual = 0.0611362, No Iterations 2
smoothSolver:  Solving for Uy, Initial residual = 1, Final residual = 0.0585177, No Iterations 2
GAMG:  Solving for p, Initial residual = 1, Final residual = 0.0796943, No Iterations 9
time step continuity errors : sum local = 0.00025243, global = -8.28823e-05, cumulative = -8.28823e-05
smoothSolver:  Solving for nuTilda, Initial residual = 1, Final residual = 0.0447475, No Iterations 2
ExecutionTime = 0.09 s  ClockTime = 0 s

Time = 2

smoothSolver:  Solving for Ux, Initial residual = 0.435216, Final residual = 0.0193283, No Iterations 4
smoothSolver:  Solving for Uy, Initial residual = 0.573963, Final residual = 0.0151315, No Iterations 4
GAMG:  Solving for p, Initial residual = 0.116747, Final residual = 0.0109388, No Iterations 5
time step continuity errors : sum local = 0.000471329, global = 0.000181526, cumulative = 9.86438e-05
smoothSolver:  Solving for nuTilda, Initial residual = 0.135493, Final residual = 0.00947006, No Iterations 2
ExecutionTime = 0.11 s  ClockTime = 0 s

Time = 3

smoothSolver:  Solving for Ux, Initial residual = 0.167727, Final residual = 0.00713136, No Iterations 4
smoothSolver:  Solving for Uy, Initial residual = 0.158572, Final residual = 0.00482334, No Iterations 4
GAMG:  Solving for p, Initial residual = 0.175228, Final residual = 0.0129607, No Iterations 7
time step continuity errors : sum local = 0.000417229, global = -9.94553e-06, cumulative = 8.86983e-05
smoothSolver:  Solving for nuTilda, Initial residual = 0.129859, Final residual = 0.0123822, No Iterations 2
ExecutionTime = 0.13 s  ClockTime = 0 s

Time = 4

smoothSolver:  Solving for Ux, Initial residual = 0.0487722, Final residual = 0.00125891, No Iterations 4
smoothSolver:  Solving for Uy, Initial residual = 0.0578655, Final residual = 0.00173446, No Iterations 4
GAMG:  Solving for p, Initial residual = 0.299547, Final residual = 0.0288855, No Iterations 6
time step continuity errors : sum local = 0.000417773, global = 8.07355e-05, cumulative = 0.000169434
smoothSolver:  Solving for nuTilda, Initial residual = 0.166614, Final residual = 0.00450876, No Iterations 4
ExecutionTime = 0.14 s  ClockTime = 0 s

Time = 5

smoothSolver:  Solving for Ux, Initial residual = 0.125633, Final residual = 0.00585343, No Iterations 4
smoothSolver:  Solving for Uy, Initial residual = 0.15236, Final residual = 0.00406165, No Iterations 4
GAMG:  Solving for p, Initial residual = 0.172046, Final residual = 0.0112018, No Iterations 5
time step continuity errors : sum local = 0.000348961, global = -8.88376e-05, cumulative = 8.05962e-05
smoothSolver:  Solving for nuTilda, Initial residual = 0.122705, Final residual = 0.00327945, No Iterations 4
ExecutionTime = 0.15 s  ClockTime = 0 s

Time = 6

smoothSolver:  Solving for Ux, Initial residual = 0.142445, Final residual = 0.00633232, No Iterations 4
smoothSolver:  Solving for Uy, Initial residual = 0.168711, Final residual = 0.00556098, No Iterations 4
GAMG:  Solving for p, Initial residual = 0.232423, Final residual = 0.0227149, No Iterations 5
time step continuity errors : sum local = 0.000476401, global = 0.000153424, cumulative = 0.00023402
smoothSolver:  Solving for nuTilda, Initial residual = 0.0895782, Final residual = 0.00244833, No Iterations 4
ExecutionTime = 0.17 s  ClockTime = 0 s

Time = 7

smoothSolver:  Solving for Ux, Initial residual = 0.0996254, Final residual = 0.00859058, No Iterations 2
smoothSolver:  Solving for Uy, Initial residual = 0.124301, Final residual = 0.00849217, No Iterations 2
GAMG:  Solving for p, Initial residual = 0.388016, Final residual = 0.0300836, No Iterations 6
time step continuity errors : sum local = 0.000343657, global = 0.000109948, cumulative = 0.000343968
smoothSolver:  Solving for nuTilda, Initial residual = 0.0707551, Final residual = 0.00202062, No Iterations 4
ExecutionTime = 0.18 s  ClockTime = 0 s

Time = 8

smoothSolver:  Solving for Ux, Initial residual = 0.114708, Final residual = 0.00386168, No Iterations 4
smoothSolver:  Solving for Uy, Initial residual = 0.120638, Final residual = 0.00901815, No Iterations 2
GAMG:  Solving for p, Initial residual = 0.245012, Final residual = 0.0159006, No Iterations 5
time step continuity errors : sum local = 0.00032216, global = -7.26306e-05, cumulative = 0.000271338
smoothSolver:  Solving for nuTilda, Initial residual = 0.0569906, Final residual = 0.00171485, No Iterations 4
ExecutionTime = 0.19 s  ClockTime = 0 s

Time = 9

smoothSolver:  Solving for Ux, Initial residual = 0.0767073, Final residual = 0.00274282, No Iterations 4
smoothSolver:  Solving for Uy, Initial residual = 0.0796209, Final residual = 0.00757779, No Iterations 2
GAMG:  Solving for p, Initial residual = 0.327237, Final residual = 0.0235223, No Iterations 5
time step continuity errors : sum local = 0.000297364, global = 3.90016e-05, cumulative = 0.000310339
smoothSolver:  Solving for nuTilda, Initial residual = 0.0446877, Final residual = 0.00143874, No Iterations 4
ExecutionTime = 0.2 s  ClockTime = 0 s

Time = 10

smoothSolver:  Solving for Ux, Initial residual = 0.0545195, Final residual = 0.00146518, No Iterations 4
smoothSolver:  Solving for Uy, Initial residual = 0.068897, Final residual = 0.00651978, No Iterations 2
GAMG:  Solving for p, Initial residual = 0.340061, Final residual = 0.0307497, No Iterations 5
time step continuity errors : sum local = 0.00034621, global = -9.93689e-05, cumulative = 0.00021097
smoothSolver:  Solving for nuTilda, Initial residual = 0.0396944, Final residual = 0.0012331, No Iterations 4
ExecutionTime = 0.22 s  ClockTime = 0 s

Time = 11

smoothSolver:  Solving for Ux, Initial residual = 0.0631215, Final residual = 0.00204774, No Iterations 4
smoothSolver:  Solving for Uy, Initial residual = 0.0754021, Final residual = 0.00748042, No Iterations 2
GAMG:  Solving for p, Initial residual = 0.259541, Final residual = 0.019633, No Iterations 5
time step continuity errors : sum local = 0.000326809, global = 6.50435e-05, cumulative = 0.000276014
smoothSolver:  Solving for nuTilda, Initial residual = 0.0374003, Final residual = 0.00113098, No Iterations 4
ExecutionTime = 0.23 s  ClockTime = 0 s

Time = 12

smoothSolver:  Solving for Ux, Initial residual = 0.0643235, Final residual = 0.00221977, No Iterations 4
smoothSolver:  Solving for Uy, Initial residual = 0.0680073, Final residual = 0.00203597, No Iterations 4
GAMG:  Solving for p, Initial residual = 0.323983, Final residual = 0.0225469, No Iterations 5
time step continuity errors : sum local = 0.000261087, global = -3.51315e-05, cumulative = 0.000240882
smoothSolver:  Solving for nuTilda, Initial residual = 0.0342628, Final residual = 0.00106339, No Iterations 4
ExecutionTime = 0.25 s  ClockTime = 0 s

Time = 13

smoothSolver:  Solving for Ux, Initial residual = 0.0586984, Final residual = 0.00482766, No Iterations 2
smoothSolver:  Solving for Uy, Initial residual = 0.069244, Final residual = 0.00504419, No Iterations 2
GAMG:  Solving for p, Initial residual = 0.465409, Final residual = 0.0350256, No Iterations 6
time step continuity errors : sum local = 0.000253585, global = -5.90744e-05, cumulative = 0.000181808
smoothSolver:  Solving for nuTilda, Initial residual = 0.0320886, Final residual = 0.000985266, No Iterations 4
ExecutionTime = 0.26 s  ClockTime = 0 s

Time = 14

smoothSolver:  Solving for Ux, Initial residual = 0.057984, Final residual = 0.00536692, No Iterations 2
smoothSolver:  Solving for Uy, Initial residual = 0.0634361, Final residual = 0.0038857, No Iterations 2
GAMG:  Solving for p, Initial residual = 0.344447, Final residual = 0.0245261, No Iterations 6
time step continuity errors : sum local = 0.000262727, global = -5.77243e-05, cumulative = 0.000124084
smoothSolver:  Solving for nuTilda, Initial residual = 0.029645, Final residual = 0.000929092, No Iterations 4
ExecutionTime = 0.27 s  ClockTime = 0 s

Time = 15

smoothSolver:  Solving for Ux, Initial residual = 0.050099, Final residual = 0.00152241, No Iterations 4
smoothSolver:  Solving for Uy, Initial residual = 0.0539177, Final residual = 0.00415335, No Iterations 2
GAMG:  Solving for p, Initial residual = 0.437037, Final residual = 0.0358352, No Iterations 5
time step continuity errors : sum local = 0.000271056, global = 6.85395e-05, cumulative = 0.000192623
smoothSolver:  Solving for nuTilda, Initial residual = 0.0288196, Final residual = 0.000865071, No Iterations 4
ExecutionTime = 0.29 s  ClockTime = 0 s

Time = 16

smoothSolver:  Solving for Ux, Initial residual = 0.0439311, Final residual = 0.00121814, No Iterations 4
smoothSolver:  Solving for Uy, Initial residual = 0.0524401, Final residual = 0.00473008, No Iterations 2
GAMG:  Solving for p, Initial residual = 0.377641, Final residual = 0.0375291, No Iterations 4
time step continuity errors : sum local = 0.000301317, global = 4.56473e-05, cumulative = 0.00023827
smoothSolver:  Solving for nuTilda, Initial residual = 0.0269263, Final residual = 0.000819231, No Iterations 4
ExecutionTime = 0.3 s  ClockTime = 0 s

Time = 17

smoothSolver:  Solving for Ux, Initial residual = 0.0451162, Final residual = 0.00120729, No Iterations 4
smoothSolver:  Solving for Uy, Initial residual = 0.0524396, Final residual = 0.00520903, No Iterations 2
GAMG:  Solving for p, Initial residual = 0.27771, Final residual = 0.0260337, No Iterations 5
time step continuity errors : sum local = 0.000298638, global = -9.69562e-05, cumulative = 0.000141314
smoothSolver:  Solving for nuTilda, Initial residual = 0.0264724, Final residual = 0.00078188, No Iterations 4
ExecutionTime = 0.31 s  ClockTime = 0 s

Time = 18

smoothSolver:  Solving for Ux, Initial residual = 0.0436935, Final residual = 0.00144795, No Iterations 4
smoothSolver:  Solving for Uy, Initial residual = 0.0478267, Final residual = 0.00152581, No Iterations 4
GAMG:  Solving for p, Initial residual = 0.284395, Final residual = 0.0226705, No Iterations 5
time step continuity errors : sum local = 0.000235489, global = 6.05654e-05, cumulative = 0.00020188
smoothSolver:  Solving for nuTilda, Initial residual = 0.0251636, Final residual = 0.000751223, No Iterations 4
ExecutionTime = 0.33 s  ClockTime = 1 s

Time = 19

smoothSolver:  Solving for Ux, Initial residual = 0.0415458, Final residual = 0.00357743, No Iterations 2
smoothSolver:  Solving for Uy, Initial residual = 0.0475271, Final residual = 0.00427563, No Iterations 2
GAMG:  Solving for p, Initial residual = 0.50695, Final residual = 0.0389707, No Iterations 4
time step continuity errors : sum local = 0.000209895, global = 8.71784e-06, cumulative = 0.000210597
smoothSolver:  Solving for nuTilda, Initial residual = 0.0241934, Final residual = 0.00071495, No Iterations 4
ExecutionTime = 0.34 s  ClockTime = 1 s

Time = 20

smoothSolver:  Solving for Ux, Initial residual = 0.0399015, Final residual = 0.00333563, No Iterations 2
smoothSolver:  Solving for Uy, Initial residual = 0.0481245, Final residual = 0.00333567, No Iterations 2
GAMG:  Solving for p, Initial residual = 0.393751, Final residual = 0.0321277, No Iterations 4
time step continuity errors : sum local = 0.00022681, global = -3.9354e-06, cumulative = 0.000206662
smoothSolver:  Solving for nuTilda, Initial residual = 0.0233371, Final residual = 0.000677487, No Iterations 4
ExecutionTime = 0.35 s  ClockTime = 1 s

Time = 21

smoothSolver:  Solving for Ux, Initial residual = 0.0381775, Final residual = 0.0011362, No Iterations 4
smoothSolver:  Solving for Uy, Initial residual = 0.0428539, Final residual = 0.00342627, No Iterations 2
GAMG:  Solving for p, Initial residual = 0.369626, Final residual = 0.0361598, No Iterations 5
time step continuity errors : sum local = 0.000256461, global = 5.83493e-05, cumulative = 0.000265011
smoothSolver:  Solving for nuTilda, Initial residual = 0.0223187, Final residual = 0.000639927, No Iterations 4
ExecutionTime = 0.37 s  ClockTime = 1 s

Time = 22

smoothSolver:  Solving for Ux, Initial residual = 0.0336364, Final residual = 0.00100057, No Iterations 4
smoothSolver:  Solving for Uy, Initial residual = 0.0387212, Final residual = 0.00107247, No Iterations 4
GAMG:  Solving for p, Initial residual = 0.466816, Final residual = 0.0427051, No Iterations 4
time step continuity errors : sum local = 0.000229438, global = 3.92266e-05, cumulative = 0.000304238
smoothSolver:  Solving for nuTilda, Initial residual = 0.0219172, Final residual = 0.00059461, No Iterations 4
ExecutionTime = 0.38 s  ClockTime = 1 s

Time = 23

smoothSolver:  Solving for Ux, Initial residual = 0.0325381, Final residual = 0.00316311, No Iterations 2
smoothSolver:  Solving for Uy, Initial residual = 0.0394986, Final residual = 0.00381971, No Iterations 2
GAMG:  Solving for p, Initial residual = 0.277803, Final residual = 0.0247775, No Iterations 4
time step continuity errors : sum local = 0.000211966, global = 3.99453e-05, cumulative = 0.000344183
smoothSolver:  Solving for nuTilda, Initial residual = 0.0209181, Final residual = 0.000541803, No Iterations 4
ExecutionTime = 0.39 s  ClockTime = 1 s

Time = 24

smoothSolver:  Solving for Ux, Initial residual = 0.0349183, Final residual = 0.00111599, No Iterations 4
smoothSolver:  Solving for Uy, Initial residual = 0.0391444, Final residual = 0.00118241, No Iterations 4
GAMG:  Solving for p, Initial residual = 0.241502, Final residual = 0.0216272, No Iterations 5
time step continuity errors : sum local = 0.000208588, global = -7.14153e-05, cumulative = 0.000272768
smoothSolver:  Solving for nuTilda, Initial residual = 0.0204426, Final residual = 0.000493989, No Iterations 4
ExecutionTime = 0.41 s  ClockTime = 1 s

Time = 25

smoothSolver:  Solving for Ux, Initial residual = 0.0330038, Final residual = 0.00107767, No Iterations 4
smoothSolver:  Solving for Uy, Initial residual = 0.0360751, Final residual = 0.00109354, No Iterations 4
GAMG:  Solving for p, Initial residual = 0.280484, Final residual = 0.0246732, No Iterations 5
time step continuity errors : sum local = 0.000198115, global = 5.31573e-05, cumulative = 0.000325925
smoothSolver:  Solving for nuTilda, Initial residual = 0.0197734, Final residual = 0.000465911, No Iterations 4
ExecutionTime = 0.43 s  ClockTime = 1 s

Time = 26

smoothSolver:  Solving for Ux, Initial residual = 0.0307374, Final residual = 0.00248911, No Iterations 2
smoothSolver:  Solving for Uy, Initial residual = 0.0347089, Final residual = 0.00306265, No Iterations 2
GAMG:  Solving for p, Initial residual = 0.436035, Final residual = 0.0380057, No Iterations 4
time step continuity errors : sum local = 0.000180935, global = 2.28137e-05, cumulative = 0.000348739
smoothSolver:  Solving for nuTilda, Initial residual = 0.019123, Final residual = 0.000435522, No Iterations 4
ExecutionTime = 0.44 s  ClockTime = 1 s

Time = 27

smoothSolver:  Solving for Ux, Initial residual = 0.0298004, Final residual = 0.00280586, No Iterations 2
smoothSolver:  Solving for Uy, Initial residual = 0.033815, Final residual = 0.00267748, No Iterations 2
GAMG:  Solving for p, Initial residual = 0.36775, Final residual = 0.0245043, No Iterations 6
time step continuity errors : sum local = 0.000131913, global = 3.09789e-05, cumulative = 0.000379718
smoothSolver:  Solving for nuTilda, Initial residual = 0.018625, Final residual = 0.000398693, No Iterations 4
ExecutionTime = 0.45 s  ClockTime = 1 s

Time = 28

smoothSolver:  Solving for Ux, Initial residual = 0.028353, Final residual = 0.000890423, No Iterations 4
smoothSolver:  Solving for Uy, Initial residual = 0.0298833, Final residual = 0.00284194, No Iterations 2
GAMG:  Solving for p, Initial residual = 0.388736, Final residual = 0.0316196, No Iterations 6
time step continuity errors : sum local = 0.000154779, global = 4.21943e-05, cumulative = 0.000421912
smoothSolver:  Solving for nuTilda, Initial residual = 0.0183206, Final residual = 0.000361941, No Iterations 4
ExecutionTime = 0.47 s  ClockTime = 1 s

Time = 29

smoothSolver:  Solving for Ux, Initial residual = 0.0255498, Final residual = 0.000726797, No Iterations 4
smoothSolver:  Solving for Uy, Initial residual = 0.0265013, Final residual = 0.000800774, No Iterations 4
GAMG:  Solving for p, Initial residual = 0.32486, Final residual = 0.0322645, No Iterations 5
time step continuity errors : sum local = 0.00017938, global = -5.04499e-05, cumulative = 0.000371462
smoothSolver:  Solving for nuTilda, Initial residual = 0.0179521, Final residual = 0.000345235, No Iterations 4
ExecutionTime = 0.48 s  ClockTime = 1 s

Time = 30

smoothSolver:  Solving for Ux, Initial residual = 0.026548, Final residual = 0.000744528, No Iterations 4
smoothSolver:  Solving for Uy, Initial residual = 0.0271977, Final residual = 0.000777685, No Iterations 4
GAMG:  Solving for p, Initial residual = 0.220963, Final residual = 0.0200189, No Iterations 4
time step continuity errors : sum local = 0.000150977, global = -3.22806e-05, cumulative = 0.000339182
smoothSolver:  Solving for nuTilda, Initial residual = 0.0175031, Final residual = 0.000324829, No Iterations 4
ExecutionTime = 0.5 s  ClockTime = 1 s

Time = 31

smoothSolver:  Solving for Ux, Initial residual = 0.0275963, Final residual = 0.000931832, No Iterations 4
smoothSolver:  Solving for Uy, Initial residual = 0.0261964, Final residual = 0.000793522, No Iterations 4
GAMG:  Solving for p, Initial residual = 0.201074, Final residual = 0.0137864, No Iterations 6
time step continuity errors : sum local = 0.000108792, global = -2.9986e-05, cumulative = 0.000309196
smoothSolver:  Solving for nuTilda, Initial residual = 0.0172633, Final residual = 0.00030633, No Iterations 4
ExecutionTime = 0.52 s  ClockTime = 1 s

Time = 32

smoothSolver:  Solving for Ux, Initial residual = 0.0255152, Final residual = 0.00080616, No Iterations 4
smoothSolver:  Solving for Uy, Initial residual = 0.0235725, Final residual = 0.000725156, No Iterations 4
GAMG:  Solving for p, Initial residual = 0.229733, Final residual = 0.020205, No Iterations 6
time step continuity errors : sum local = 0.000130882, global = -3.57275e-05, cumulative = 0.000273468
smoothSolver:  Solving for nuTilda, Initial residual = 0.017092, Final residual = 0.000300967, No Iterations 4
ExecutionTime = 0.54 s  ClockTime = 1 s

Time = 33

smoothSolver:  Solving for Ux, Initial residual = 0.0231725, Final residual = 0.00220838, No Iterations 2
smoothSolver:  Solving for Uy, Initial residual = 0.0212597, Final residual = 0.00206841, No Iterations 2
GAMG:  Solving for p, Initial residual = 0.286544, Final residual = 0.0256728, No Iterations 6
time step continuity errors : sum local = 0.00012165, global = -3.14089e-05, cumulative = 0.000242059
smoothSolver:  Solving for nuTilda, Initial residual = 0.0170498, Final residual = 0.000296664, No Iterations 4
ExecutionTime = 0.56 s  ClockTime = 1 s

Time = 34

smoothSolver:  Solving for Ux, Initial residual = 0.023451, Final residual = 0.00067969, No Iterations 4
smoothSolver:  Solving for Uy, Initial residual = 0.0205673, Final residual = 0.00184016, No Iterations 2
GAMG:  Solving for p, Initial residual = 0.320341, Final residual = 0.0279195, No Iterations 6
time step continuity errors : sum local = 0.000113799, global = -2.4373e-05, cumulative = 0.000217686
smoothSolver:  Solving for nuTilda, Initial residual = 0.0171563, Final residual = 0.00029892, No Iterations 4
ExecutionTime = 0.57 s  ClockTime = 1 s

Time = 35

smoothSolver:  Solving for Ux, Initial residual = 0.0228247, Final residual = 0.000696426, No Iterations 4
smoothSolver:  Solving for Uy, Initial residual = 0.0189218, Final residual = 0.000534141, No Iterations 4
GAMG:  Solving for p, Initial residual = 0.28637, Final residual = 0.0253306, No Iterations 6
time step continuity errors : sum local = 0.00010975, global = -1.60537e-05, cumulative = 0.000201632
smoothSolver:  Solving for nuTilda, Initial residual = 0.0171382, Final residual = 0.000299024, No Iterations 4
ExecutionTime = 0.59 s  ClockTime = 1 s

Time = 36

smoothSolver:  Solving for Ux, Initial residual = 0.0215905, Final residual = 0.000591718, No Iterations 4
smoothSolver:  Solving for Uy, Initial residual = 0.0175646, Final residual = 0.000602187, No Iterations 4
GAMG:  Solving for p, Initial residual = 0.216593, Final residual = 0.0184117, No Iterations 6
time step continuity errors : sum local = 9.77661e-05, global = 1.75979e-05, cumulative = 0.00021923
smoothSolver:  Solving for nuTilda, Initial residual = 0.0172364, Final residual = 0.000298181, No Iterations 4
ExecutionTime = 0.61 s  ClockTime = 1 s

Time = 37

smoothSolver:  Solving for Ux, Initial residual = 0.0213423, Final residual = 0.00063953, No Iterations 4
smoothSolver:  Solving for Uy, Initial residual = 0.0176172, Final residual = 0.000626963, No Iterations 4
GAMG:  Solving for p, Initial residual = 0.173096, Final residual = 0.0152693, No Iterations 6
time step continuity errors : sum local = 9.32509e-05, global = 1.95723e-05, cumulative = 0.000238803
smoothSolver:  Solving for nuTilda, Initial residual = 0.0175556, Final residual = 0.000297316, No Iterations 4
ExecutionTime = 0.63 s  ClockTime = 1 s

Time = 38

smoothSolver:  Solving for Ux, Initial residual = 0.0210297, Final residual = 0.000720345, No Iterations 4
smoothSolver:  Solving for Uy, Initial residual = 0.0164711, Final residual = 0.000604437, No Iterations 4
GAMG:  Solving for p, Initial residual = 0.159914, Final residual = 0.0151185, No Iterations 5
time step continuity errors : sum local = 9.12557e-05, global = -2.80087e-05, cumulative = 0.000210794
smoothSolver:  Solving for nuTilda, Initial residual = 0.017865, Final residual = 0.000296977, No Iterations 4
ExecutionTime = 0.65 s  ClockTime = 1 s

Time = 39

smoothSolver:  Solving for Ux, Initial residual = 0.0198536, Final residual = 0.000662186, No Iterations 4
smoothSolver:  Solving for Uy, Initial residual = 0.0147792, Final residual = 0.000533015, No Iterations 4
GAMG:  Solving for p, Initial residual = 0.164838, Final residual = 0.0128064, No Iterations 6
time step continuity errors : sum local = 7.02979e-05, global = -1.76151e-05, cumulative = 0.000193179
smoothSolver:  Solving for nuTilda, Initial residual = 0.0180557, Final residual = 0.000295941, No Iterations 4
ExecutionTime = 0.66 s  ClockTime = 1 s

Time = 40

smoothSolver:  Solving for Ux, Initial residual = 0.0190424, Final residual = 0.000569291, No Iterations 4
smoothSolver:  Solving for Uy, Initial residual = 0.0135517, Final residual = 0.000444296, No Iterations 4
GAMG:  Solving for p, Initial residual = 0.178522, Final residual = 0.0161565, No Iterations 7
time step continuity errors : sum local = 7.79412e-05, global = 1.75938e-05, cumulative = 0.000210773
smoothSolver:  Solving for nuTilda, Initial residual = 0.0183127, Final residual = 0.00182928, No Iterations 2
ExecutionTime = 0.68 s  ClockTime = 1 s

Time = 41

smoothSolver:  Solving for Ux, Initial residual = 0.0190562, Final residual = 0.000557691, No Iterations 4
smoothSolver:  Solving for Uy, Initial residual = 0.0136072, Final residual = 0.000439844, No Iterations 4
GAMG:  Solving for p, Initial residual = 0.172855, Final residual = 0.0137665, No Iterations 7
time step continuity errors : sum local = 6.32897e-05, global = 1.63433e-05, cumulative = 0.000227116
smoothSolver:  Solving for nuTilda, Initial residual = 0.0184238, Final residual = 0.00183196, No Iterations 2
ExecutionTime = 0.7 s  ClockTime = 1 s

Time = 42

smoothSolver:  Solving for Ux, Initial residual = 0.0187535, Final residual = 0.000522382, No Iterations 4
smoothSolver:  Solving for Uy, Initial residual = 0.013845, Final residual = 0.000489623, No Iterations 4
GAMG:  Solving for p, Initial residual = 0.149896, Final residual = 0.014398, No Iterations 5
time step continuity errors : sum local = 7.02125e-05, global = 2.10394e-05, cumulative = 0.000248155
smoothSolver:  Solving for nuTilda, Initial residual = 0.0185753, Final residual = 0.00182746, No Iterations 2
ExecutionTime = 0.72 s  ClockTime = 1 s

Time = 43

smoothSolver:  Solving for Ux, Initial residual = 0.018352, Final residual = 0.000512333, No Iterations 4
smoothSolver:  Solving for Uy, Initial residual = 0.0140128, Final residual = 0.00052793, No Iterations 4
GAMG:  Solving for p, Initial residual = 0.130189, Final residual = 0.0115539, No Iterations 6
time step continuity errors : sum local = 6.1342e-05, global = 1.62293e-05, cumulative = 0.000264385
smoothSolver:  Solving for nuTilda, Initial residual = 0.0186849, Final residual = 0.00181973, No Iterations 2
ExecutionTime = 0.73 s  ClockTime = 1 s

Time = 44

smoothSolver:  Solving for Ux, Initial residual = 0.0179362, Final residual = 0.000542171, No Iterations 4
smoothSolver:  Solving for Uy, Initial residual = 0.0136667, Final residual = 0.000525028, No Iterations 4
GAMG:  Solving for p, Initial residual = 0.119645, Final residual = 0.0104787, No Iterations 8
time step continuity errors : sum local = 5.79317e-05, global = 1.4827e-05, cumulative = 0.000279212
smoothSolver:  Solving for nuTilda, Initial residual = 0.0187359, Final residual = 0.00180716, No Iterations 2
ExecutionTime = 0.74 s  ClockTime = 1 s

Time = 45

smoothSolver:  Solving for Ux, Initial residual = 0.0172043, Final residual = 0.000547851, No Iterations 4
smoothSolver:  Solving for Uy, Initial residual = 0.0127826, Final residual = 0.000500682, No Iterations 4
GAMG:  Solving for p, Initial residual = 0.116986, Final residual = 0.0105407, No Iterations 7
time step continuity errors : sum local = 5.6446e-05, global = -1.35071e-05, cumulative = 0.000265705
smoothSolver:  Solving for nuTilda, Initial residual = 0.0187302, Final residual = 0.0017924, No Iterations 2
ExecutionTime = 0.76 s  ClockTime = 1 s

Time = 46

smoothSolver:  Solving for Ux, Initial residual = 0.0164781, Final residual = 0.000503986, No Iterations 4
smoothSolver:  Solving for Uy, Initial residual = 0.0120003, Final residual = 0.000468499, No Iterations 4
GAMG:  Solving for p, Initial residual = 0.111661, Final residual = 0.0110554, No Iterations 6
time step continuity errors : sum local = 5.58677e-05, global = 1.18587e-05, cumulative = 0.000277563
smoothSolver:  Solving for nuTilda, Initial residual = 0.0187143, Final residual = 0.00177253, No Iterations 2
ExecutionTime = 0.78 s  ClockTime = 1 s

Time = 47

smoothSolver:  Solving for Ux, Initial residual = 0.0162377, Final residual = 0.000459572, No Iterations 4
smoothSolver:  Solving for Uy, Initial residual = 0.0114682, Final residual = 0.000443083, No Iterations 4
GAMG:  Solving for p, Initial residual = 0.106724, Final residual = 0.00827973, No Iterations 7
time step continuity errors : sum local = 3.99478e-05, global = -1.07375e-05, cumulative = 0.000266826
smoothSolver:  Solving for nuTilda, Initial residual = 0.0186665, Final residual = 0.00174887, No Iterations 2
ExecutionTime = 0.79 s  ClockTime = 1 s

Time = 48

smoothSolver:  Solving for Ux, Initial residual = 0.0160667, Final residual = 0.000430546, No Iterations 4
smoothSolver:  Solving for Uy, Initial residual = 0.0113055, Final residual = 0.000423413, No Iterations 4
GAMG:  Solving for p, Initial residual = 0.0989834, Final residual = 0.00853234, No Iterations 6
time step continuity errors : sum local = 4.18792e-05, global = -9.26707e-06, cumulative = 0.000257559
smoothSolver:  Solving for nuTilda, Initial residual = 0.0186138, Final residual = 0.00172161, No Iterations 2
ExecutionTime = 0.81 s  ClockTime = 1 s

Time = 49

smoothSolver:  Solving for Ux, Initial residual = 0.0160002, Final residual = 0.000425713, No Iterations 4
smoothSolver:  Solving for Uy, Initial residual = 0.0115429, Final residual = 0.000419097, No Iterations 4
GAMG:  Solving for p, Initial residual = 0.0904515, Final residual = 0.00782902, No Iterations 8
time step continuity errors : sum local = 4.0477e-05, global = -1.04064e-05, cumulative = 0.000247152
smoothSolver:  Solving for nuTilda, Initial residual = 0.0185477, Final residual = 0.00168835, No Iterations 2
ExecutionTime = 0.83 s  ClockTime = 1 s

Time = 50

smoothSolver:  Solving for Ux, Initial residual = 0.0158573, Final residual = 0.00044706, No Iterations 4
smoothSolver:  Solving for Uy, Initial residual = 0.0118301, Final residual = 0.000424725, No Iterations 4
GAMG:  Solving for p, Initial residual = 0.08124, Final residual = 0.00796487, No Iterations 7
time step continuity errors : sum local = 4.28636e-05, global = 1.01683e-05, cumulative = 0.000257321
smoothSolver:  Solving for nuTilda, Initial residual = 0.0184871, Final residual = 0.00165841, No Iterations 2
ExecutionTime = 0.87 s  ClockTime = 1 s

Time = 51

smoothSolver:  Solving for Ux, Initial residual = 0.0152329, Final residual = 0.000462981, No Iterations 4
smoothSolver:  Solving for Uy, Initial residual = 0.0117551, Final residual = 0.000439489, No Iterations 4
GAMG:  Solving for p, Initial residual = 0.0738424, Final residual = 0.00665645, No Iterations 7
time step continuity errors : sum local = 3.55642e-05, global = 8.09559e-06, cumulative = 0.000265416
smoothSolver:  Solving for nuTilda, Initial residual = 0.0183981, Final residual = 0.00162364, No Iterations 2
ExecutionTime = 0.89 s  ClockTime = 1 s

Time = 52

smoothSolver:  Solving for Ux, Initial residual = 0.0146544, Final residual = 0.000455416, No Iterations 4
smoothSolver:  Solving for Uy, Initial residual = 0.0113741, Final residual = 0.00045552, No Iterations 4
GAMG:  Solving for p, Initial residual = 0.0697065, Final residual = 0.00555993, No Iterations 6
time step continuity errors : sum local = 2.8552e-05, global = -5.64086e-06, cumulative = 0.000259775
smoothSolver:  Solving for nuTilda, Initial residual = 0.0183128, Final residual = 0.00158438, No Iterations 2
ExecutionTime = 0.9 s  ClockTime = 1 s

Time = 53

smoothSolver:  Solving for Ux, Initial residual = 0.0144568, Final residual = 0.000439873, No Iterations 4
smoothSolver:  Solving for Uy, Initial residual = 0.010652, Final residual = 0.000440215, No Iterations 4
GAMG:  Solving for p, Initial residual = 0.06703, Final residual = 0.00530989, No Iterations 6
time step continuity errors : sum local = 2.62985e-05, global = 5.29172e-06, cumulative = 0.000265067
smoothSolver:  Solving for nuTilda, Initial residual = 0.018182, Final residual = 0.00154671, No Iterations 2
ExecutionTime = 0.92 s  ClockTime = 1 s

Time = 54

smoothSolver:  Solving for Ux, Initial residual = 0.014448, Final residual = 0.000424745, No Iterations 4
smoothSolver:  Solving for Uy, Initial residual = 0.00988802, Final residual = 0.000399581, No Iterations 4
GAMG:  Solving for p, Initial residual = 0.0660503, Final residual = 0.00610419, No Iterations 7
time step continuity errors : sum local = 2.98587e-05, global = -7.27639e-06, cumulative = 0.000257791
smoothSolver:  Solving for nuTilda, Initial residual = 0.0180692, Final residual = 0.00150662, No Iterations 2
ExecutionTime = 0.94 s  ClockTime = 1 s

Time = 55

smoothSolver:  Solving for Ux, Initial residual = 0.0141364, Final residual = 0.000404646, No Iterations 4
smoothSolver:  Solving for Uy, Initial residual = 0.00961908, Final residual = 0.000355425, No Iterations 4
GAMG:  Solving for p, Initial residual = 0.0605623, Final residual = 0.00468187, No Iterations 7
time step continuity errors : sum local = 2.3441e-05, global = -5.57091e-06, cumulative = 0.00025222
smoothSolver:  Solving for nuTilda, Initial residual = 0.0179522, Final residual = 0.00146589, No Iterations 2
ExecutionTime = 0.95 s  ClockTime = 1 s

Time = 56

smoothSolver:  Solving for Ux, Initial residual = 0.0138301, Final residual = 0.000390927, No Iterations 4
smoothSolver:  Solving for Uy, Initial residual = 0.00968911, Final residual = 0.000343472, No Iterations 4
GAMG:  Solving for p, Initial residual = 0.0525824, Final residual = 0.00500011, No Iterations 5
time step continuity errors : sum local = 2.57727e-05, global = -6.66534e-06, cumulative = 0.000245554
smoothSolver:  Solving for nuTilda, Initial residual = 0.0178571, Final residual = 0.00142886, No Iterations 2
ExecutionTime = 0.96 s  ClockTime = 1 s

Time = 57

smoothSolver:  Solving for Ux, Initial residual = 0.0135106, Final residual = 0.00038965, No Iterations 4
smoothSolver:  Solving for Uy, Initial residual = 0.00978615, Final residual = 0.000360803, No Iterations 4
GAMG:  Solving for p, Initial residual = 0.0472633, Final residual = 0.00402603, No Iterations 6
time step continuity errors : sum local = 2.09972e-05, global = 2.49375e-06, cumulative = 0.000248048
smoothSolver:  Solving for nuTilda, Initial residual = 0.0177104, Final residual = 0.00139263, No Iterations 2
ExecutionTime = 0.98 s  ClockTime = 1 s

Time = 58

smoothSolver:  Solving for Ux, Initial residual = 0.01323, Final residual = 0.000394188, No Iterations 4
smoothSolver:  Solving for Uy, Initial residual = 0.0095622, Final residual = 0.00037893, No Iterations 4
GAMG:  Solving for p, Initial residual = 0.0454502, Final residual = 0.003586, No Iterations 8
time step continuity errors : sum local = 1.83921e-05, global = -4.88655e-06, cumulative = 0.000243162
smoothSolver:  Solving for nuTilda, Initial residual = 0.0175935, Final residual = 0.00135884, No Iterations 2
ExecutionTime = 1 s  ClockTime = 1 s

Time = 59

smoothSolver:  Solving for Ux, Initial residual = 0.0129088, Final residual = 0.000391177, No Iterations 4
smoothSolver:  Solving for Uy, Initial residual = 0.00902807, Final residual = 0.000373687, No Iterations 4
GAMG:  Solving for p, Initial residual = 0.045867, Final residual = 0.00445009, No Iterations 7
time step continuity errors : sum local = 2.22105e-05, global = 5.36538e-06, cumulative = 0.000248527
smoothSolver:  Solving for nuTilda, Initial residual = 0.0174703, Final residual = 0.00132782, No Iterations 2
ExecutionTime = 1.02 s  ClockTime = 1 s

Time = 60

smoothSolver:  Solving for Ux, Initial residual = 0.0125567, Final residual = 0.000383098, No Iterations 4
smoothSolver:  Solving for Uy, Initial residual = 0.0085395, Final residual = 0.000351069, No Iterations 4
GAMG:  Solving for p, Initial residual = 0.0443168, Final residual = 0.00422469, No Iterations 5
time step continuity errors : sum local = 2.0777e-05, global = 5.53253e-06, cumulative = 0.00025406
smoothSolver:  Solving for nuTilda, Initial residual = 0.0173457, Final residual = 0.00130432, No Iterations 2
ExecutionTime = 1.03 s  ClockTime = 1 s

Time = 61

smoothSolver:  Solving for Ux, Initial residual = 0.0121386, Final residual = 0.000368722, No Iterations 4
smoothSolver:  Solving for Uy, Initial residual = 0.0082377, Final residual = 0.000330486, No Iterations 4
GAMG:  Solving for p, Initial residual = 0.0411874, Final residual = 0.00343821, No Iterations 5
time step continuity errors : sum local = 1.7008e-05, global = 4.74032e-06, cumulative = 0.0002588
smoothSolver:  Solving for nuTilda, Initial residual = 0.0172982, Final residual = 0.00128335, No Iterations 2
ExecutionTime = 1.05 s  ClockTime = 1 s

Time = 62

smoothSolver:  Solving for Ux, Initial residual = 0.0117222, Final residual = 0.000350559, No Iterations 4
smoothSolver:  Solving for Uy, Initial residual = 0.00808014, Final residual = 0.000320215, No Iterations 4
GAMG:  Solving for p, Initial residual = 0.0375938, Final residual = 0.00291586, No Iterations 6
time step continuity errors : sum local = 1.46874e-05, global = -2.55458e-06, cumulative = 0.000256245
smoothSolver:  Solving for nuTilda, Initial residual = 0.0172447, Final residual = 0.00126285, No Iterations 2
ExecutionTime = 1.07 s  ClockTime = 1 s

Time = 63

smoothSolver:  Solving for Ux, Initial residual = 0.0113499, Final residual = 0.000333135, No Iterations 4
smoothSolver:  Solving for Uy, Initial residual = 0.0079512, Final residual = 0.000322066, No Iterations 4
GAMG:  Solving for p, Initial residual = 0.0342327, Final residual = 0.00300671, No Iterations 6
time step continuity errors : sum local = 1.55422e-05, global = 7.35475e-07, cumulative = 0.000256981
smoothSolver:  Solving for nuTilda, Initial residual = 0.0172083, Final residual = 0.00125311, No Iterations 2
ExecutionTime = 1.08 s  ClockTime = 1 s

Time = 64

smoothSolver:  Solving for Ux, Initial residual = 0.0109333, Final residual = 0.00032333, No Iterations 4
smoothSolver:  Solving for Uy, Initial residual = 0.00777835, Final residual = 0.000324962, No Iterations 4
GAMG:  Solving for p, Initial residual = 0.0329516, Final residual = 0.00315022, No Iterations 5
time step continuity errors : sum local = 1.64474e-05, global = -4.36132e-06, cumulative = 0.000252619
smoothSolver:  Solving for nuTilda, Initial residual = 0.0173684, Final residual = 0.00124425, No Iterations 2
ExecutionTime = 1.1 s  ClockTime = 1 s

Time = 65

smoothSolver:  Solving for Ux, Initial residual = 0.0104817, Final residual = 0.000313677, No Iterations 4
smoothSolver:  Solving for Uy, Initial residual = 0.00749167, Final residual = 0.000318849, No Iterations 4
GAMG:  Solving for p, Initial residual = 0.0316916, Final residual = 0.00301488, No Iterations 5
time step continuity errors : sum local = 1.56723e-05, global = -3.84668e-06, cumulative = 0.000248773
smoothSolver:  Solving for nuTilda, Initial residual = 0.0175913, Final residual = 0.00124271, No Iterations 2
ExecutionTime = 1.11 s  ClockTime = 1 s

Time = 66

smoothSolver:  Solving for Ux, Initial residual = 0.0100235, Final residual = 0.000301957, No Iterations 4
smoothSolver:  Solving for Uy, Initial residual = 0.00716747, Final residual = 0.000305832, No Iterations 4
GAMG:  Solving for p, Initial residual = 0.0307279, Final residual = 0.00297103, No Iterations 5
time step continuity errors : sum local = 1.52758e-05, global = -1.26243e-06, cumulative = 0.00024751
smoothSolver:  Solving for nuTilda, Initial residual = 0.0179015, Final residual = 0.00123982, No Iterations 2
ExecutionTime = 1.13 s  ClockTime = 1 s

Time = 67

smoothSolver:  Solving for Ux, Initial residual = 0.00961083, Final residual = 0.000289208, No Iterations 4
smoothSolver:  Solving for Uy, Initial residual = 0.00688481, Final residual = 0.000291607, No Iterations 4
GAMG:  Solving for p, Initial residual = 0.0291661, Final residual = 0.00268525, No Iterations 4
time step continuity errors : sum local = 1.36731e-05, global = -1.89741e-06, cumulative = 0.000245613
smoothSolver:  Solving for nuTilda, Initial residual = 0.0182695, Final residual = 0.0012424, No Iterations 2
ExecutionTime = 1.15 s  ClockTime = 1 s

Time = 68

smoothSolver:  Solving for Ux, Initial residual = 0.00920345, Final residual = 0.000274394, No Iterations 4
smoothSolver:  Solving for Uy, Initial residual = 0.00657657, Final residual = 0.000272339, No Iterations 4
GAMG:  Solving for p, Initial residual = 0.0268401, Final residual = 0.00257829, No Iterations 5
time step continuity errors : sum local = 1.31386e-05, global = 3.22064e-06, cumulative = 0.000248834
smoothSolver:  Solving for nuTilda, Initial residual = 0.0187084, Final residual = 0.00124009, No Iterations 2
ExecutionTime = 1.17 s  ClockTime = 1 s

Time = 69

smoothSolver:  Solving for Ux, Initial residual = 0.00886554, Final residual = 0.000260753, No Iterations 4
smoothSolver:  Solving for Uy, Initial residual = 0.00624812, Final residual = 0.000256547, No Iterations 4
GAMG:  Solving for p, Initial residual = 0.0251684, Final residual = 0.00232613, No Iterations 5
time step continuity errors : sum local = 1.19566e-05, global = 3.27326e-06, cumulative = 0.000252107
smoothSolver:  Solving for nuTilda, Initial residual = 0.0191009, Final residual = 0.00123572, No Iterations 2
ExecutionTime = 1.19 s  ClockTime = 1 s

Time = 70

smoothSolver:  Solving for Ux, Initial residual = 0.00853703, Final residual = 0.000247449, No Iterations 4
smoothSolver:  Solving for Uy, Initial residual = 0.00588887, Final residual = 0.000238987, No Iterations 4
GAMG:  Solving for p, Initial residual = 0.023931, Final residual = 0.00184369, No Iterations 5
time step continuity errors : sum local = 9.62467e-06, global = 2.64732e-06, cumulative = 0.000254754
smoothSolver:  Solving for nuTilda, Initial residual = 0.0193995, Final residual = 0.00122349, No Iterations 2
ExecutionTime = 1.2 s  ClockTime = 1 s

Time = 71

smoothSolver:  Solving for Ux, Initial residual = 0.00821173, Final residual = 0.000235284, No Iterations 4
smoothSolver:  Solving for Uy, Initial residual = 0.00549793, Final residual = 0.000221013, No Iterations 4
GAMG:  Solving for p, Initial residual = 0.0225899, Final residual = 0.00203956, No Iterations 4
time step continuity errors : sum local = 1.0813e-05, global = -1.24628e-06, cumulative = 0.000253508
smoothSolver:  Solving for nuTilda, Initial residual = 0.0195954, Final residual = 0.00121013, No Iterations 2
ExecutionTime = 1.21 s  ClockTime = 1 s

Time = 72

smoothSolver:  Solving for Ux, Initial residual = 0.00786748, Final residual = 0.000222541, No Iterations 4
smoothSolver:  Solving for Uy, Initial residual = 0.00510337, Final residual = 0.000202731, No Iterations 4
GAMG:  Solving for p, Initial residual = 0.0213303, Final residual = 0.00178203, No Iterations 5
time step continuity errors : sum local = 9.5455e-06, global = 1.88682e-06, cumulative = 0.000255395
smoothSolver:  Solving for nuTilda, Initial residual = 0.0196366, Final residual = 0.00118889, No Iterations 2
ExecutionTime = 1.23 s  ClockTime = 1 s

Time = 73

smoothSolver:  Solving for Ux, Initial residual = 0.00752003, Final residual = 0.000210803, No Iterations 4
smoothSolver:  Solving for Uy, Initial residual = 0.00470024, Final residual = 0.000187298, No Iterations 4
GAMG:  Solving for p, Initial residual = 0.0198228, Final residual = 0.0015801, No Iterations 6
time step continuity errors : sum local = 8.49864e-06, global = -1.06267e-06, cumulative = 0.000254332
smoothSolver:  Solving for nuTilda, Initial residual = 0.0193924, Final residual = 0.00116467, No Iterations 2
ExecutionTime = 1.24 s  ClockTime = 1 s

Time = 74

smoothSolver:  Solving for Ux, Initial residual = 0.00717337, Final residual = 0.000198313, No Iterations 4
smoothSolver:  Solving for Uy, Initial residual = 0.00428889, Final residual = 0.000172465, No Iterations 4
GAMG:  Solving for p, Initial residual = 0.0186515, Final residual = 0.00157845, No Iterations 6
time step continuity errors : sum local = 8.50074e-06, global = -4.97725e-07, cumulative = 0.000253834
smoothSolver:  Solving for nuTilda, Initial residual = 0.0189639, Final residual = 0.00114144, No Iterations 2
ExecutionTime = 1.26 s  ClockTime = 1 s

Time = 75

smoothSolver:  Solving for Ux, Initial residual = 0.0068285, Final residual = 0.000186349, No Iterations 4
smoothSolver:  Solving for Uy, Initial residual = 0.00389055, Final residual = 0.000158013, No Iterations 4
GAMG:  Solving for p, Initial residual = 0.0177175, Final residual = 0.00174144, No Iterations 5
time step continuity errors : sum local = 9.3778e-06, global = -7.40326e-07, cumulative = 0.000253094
smoothSolver:  Solving for nuTilda, Initial residual = 0.018355, Final residual = 0.00111826, No Iterations 2
ExecutionTime = 1.28 s  ClockTime = 1 s

Time = 76

smoothSolver:  Solving for Ux, Initial residual = 0.00648474, Final residual = 0.000175951, No Iterations 4
smoothSolver:  Solving for Uy, Initial residual = 0.00351957, Final residual = 0.0001447, No Iterations 4
GAMG:  Solving for p, Initial residual = 0.0168924, Final residual = 0.00164181, No Iterations 4
time step continuity errors : sum local = 8.86095e-06, global = 7.2738e-07, cumulative = 0.000253821
smoothSolver:  Solving for nuTilda, Initial residual = 0.0176462, Final residual = 0.00109505, No Iterations 2
ExecutionTime = 1.29 s  ClockTime = 1 s

Time = 77

smoothSolver:  Solving for Ux, Initial residual = 0.00614016, Final residual = 0.000164274, No Iterations 4
smoothSolver:  Solving for Uy, Initial residual = 0.00316542, Final residual = 0.000131676, No Iterations 4
GAMG:  Solving for p, Initial residual = 0.0158646, Final residual = 0.0014919, No Iterations 4
time step continuity errors : sum local = 8.08948e-06, global = 1.06407e-06, cumulative = 0.000254885
smoothSolver:  Solving for nuTilda, Initial residual = 0.0169256, Final residual = 0.0010759, No Iterations 2
ExecutionTime = 1.31 s  ClockTime = 1 s

Time = 78

smoothSolver:  Solving for Ux, Initial residual = 0.00578825, Final residual = 0.000153261, No Iterations 4
smoothSolver:  Solving for Uy, Initial residual = 0.00285446, Final residual = 0.000120752, No Iterations 4
GAMG:  Solving for p, Initial residual = 0.0145637, Final residual = 0.00131182, No Iterations 4
time step continuity errors : sum local = 7.16476e-06, global = 8.6415e-07, cumulative = 0.00025575
smoothSolver:  Solving for nuTilda, Initial residual = 0.0161724, Final residual = 0.00105998, No Iterations 2
ExecutionTime = 1.33 s  ClockTime = 2 s

Time = 79

smoothSolver:  Solving for Ux, Initial residual = 0.00545393, Final residual = 0.00054465, No Iterations 2
smoothSolver:  Solving for Uy, Initial residual = 0.00260206, Final residual = 0.000112413, No Iterations 4
GAMG:  Solving for p, Initial residual = 0.0133244, Final residual = 0.00120326, No Iterations 4
time step continuity errors : sum local = 6.62881e-06, global = 6.75759e-07, cumulative = 0.000256425
smoothSolver:  Solving for nuTilda, Initial residual = 0.0155607, Final residual = 0.00104606, No Iterations 2
ExecutionTime = 1.34 s  ClockTime = 2 s

Time = 80

smoothSolver:  Solving for Ux, Initial residual = 0.00516165, Final residual = 0.000137506, No Iterations 4
smoothSolver:  Solving for Uy, Initial residual = 0.00238467, Final residual = 0.000104841, No Iterations 4
GAMG:  Solving for p, Initial residual = 0.0123143, Final residual = 0.00122725, No Iterations 4
time step continuity errors : sum local = 6.82978e-06, global = -6.60024e-07, cumulative = 0.000255765
smoothSolver:  Solving for nuTilda, Initial residual = 0.0149999, Final residual = 0.0010362, No Iterations 2
ExecutionTime = 1.35 s  ClockTime = 2 s

Time = 81

smoothSolver:  Solving for Ux, Initial residual = 0.0048475, Final residual = 0.000127908, No Iterations 4
smoothSolver:  Solving for Uy, Initial residual = 0.00221772, Final residual = 9.95484e-05, No Iterations 4
GAMG:  Solving for p, Initial residual = 0.011531, Final residual = 0.000874213, No Iterations 6
time step continuity errors : sum local = 4.89762e-06, global = -8.92005e-07, cumulative = 0.000254873
smoothSolver:  Solving for nuTilda, Initial residual = 0.0145819, Final residual = 0.00103047, No Iterations 2
ExecutionTime = 1.37 s  ClockTime = 2 s

Time = 82

smoothSolver:  Solving for Ux, Initial residual = 0.00455064, Final residual = 0.000450549, No Iterations 2
smoothSolver:  Solving for Uy, Initial residual = 0.00207478, Final residual = 9.64695e-05, No Iterations 4
GAMG:  Solving for p, Initial residual = 0.0105231, Final residual = 0.00092143, No Iterations 6
time step continuity errors : sum local = 5.17712e-06, global = -6.42952e-07, cumulative = 0.00025423
smoothSolver:  Solving for nuTilda, Initial residual = 0.0143642, Final residual = 0.00102644, No Iterations 2
ExecutionTime = 1.39 s  ClockTime = 2 s

Time = 83

smoothSolver:  Solving for Ux, Initial residual = 0.00430835, Final residual = 0.000427518, No Iterations 2
smoothSolver:  Solving for Uy, Initial residual = 0.00191951, Final residual = 9.24077e-05, No Iterations 4
GAMG:  Solving for p, Initial residual = 0.00970334, Final residual = 0.000818496, No Iterations 6
time step continuity errors : sum local = 4.61014e-06, global = -2.06839e-07, cumulative = 0.000254023
smoothSolver:  Solving for nuTilda, Initial residual = 0.0142337, Final residual = 0.00102548, No Iterations 2
ExecutionTime = 1.4 s  ClockTime = 2 s

Time = 84

smoothSolver:  Solving for Ux, Initial residual = 0.00407938, Final residual = 0.000405384, No Iterations 2
smoothSolver:  Solving for Uy, Initial residual = 0.00177007, Final residual = 8.76974e-05, No Iterations 4
GAMG:  Solving for p, Initial residual = 0.00887172, Final residual = 0.000816331, No Iterations 5
time step continuity errors : sum local = 4.61027e-06, global = -5.75314e-07, cumulative = 0.000253448
smoothSolver:  Solving for nuTilda, Initial residual = 0.0141952, Final residual = 0.00102875, No Iterations 2
ExecutionTime = 1.42 s  ClockTime = 2 s

Time = 85

smoothSolver:  Solving for Ux, Initial residual = 0.00385452, Final residual = 0.000380981, No Iterations 2
smoothSolver:  Solving for Uy, Initial residual = 0.00166536, Final residual = 8.23058e-05, No Iterations 4
GAMG:  Solving for p, Initial residual = 0.00797353, Final residual = 0.000715203, No Iterations 4
time step continuity errors : sum local = 4.05421e-06, global = 7.28489e-07, cumulative = 0.000254177
smoothSolver:  Solving for nuTilda, Initial residual = 0.014306, Final residual = 0.00103435, No Iterations 2
ExecutionTime = 1.43 s  ClockTime = 2 s

Time = 86

smoothSolver:  Solving for Ux, Initial residual = 0.0036427, Final residual = 0.000356655, No Iterations 2
smoothSolver:  Solving for Uy, Initial residual = 0.00155893, Final residual = 7.57774e-05, No Iterations 4
GAMG:  Solving for p, Initial residual = 0.00720718, Final residual = 0.000647677, No Iterations 4
time step continuity errors : sum local = 3.68471e-06, global = 7.91115e-07, cumulative = 0.000254968
smoothSolver:  Solving for nuTilda, Initial residual = 0.0145235, Final residual = 0.00104188, No Iterations 2
ExecutionTime = 1.44 s  ClockTime = 2 s

Time = 87

smoothSolver:  Solving for Ux, Initial residual = 0.00345322, Final residual = 0.000335346, No Iterations 2
smoothSolver:  Solving for Uy, Initial residual = 0.00147131, Final residual = 7.03912e-05, No Iterations 4
GAMG:  Solving for p, Initial residual = 0.00656407, Final residual = 0.000564889, No Iterations 5
time step continuity errors : sum local = 3.22704e-06, global = -6.91915e-07, cumulative = 0.000254276
smoothSolver:  Solving for nuTilda, Initial residual = 0.0148135, Final residual = 0.00105244, No Iterations 2
ExecutionTime = 1.45 s  ClockTime = 2 s

Time = 88

smoothSolver:  Solving for Ux, Initial residual = 0.00328594, Final residual = 0.000318329, No Iterations 2
smoothSolver:  Solving for Uy, Initial residual = 0.0013981, Final residual = 6.63515e-05, No Iterations 4
GAMG:  Solving for p, Initial residual = 0.00610471, Final residual = 0.000605417, No Iterations 5
time step continuity errors : sum local = 3.47526e-06, global = -7.33311e-07, cumulative = 0.000253543
smoothSolver:  Solving for nuTilda, Initial residual = 0.0151962, Final residual = 0.0010643, No Iterations 2
ExecutionTime = 1.47 s  ClockTime = 2 s

Time = 89

smoothSolver:  Solving for Ux, Initial residual = 0.0031474, Final residual = 0.000304552, No Iterations 2
smoothSolver:  Solving for Uy, Initial residual = 0.00132457, Final residual = 6.31245e-05, No Iterations 4
GAMG:  Solving for p, Initial residual = 0.0057727, Final residual = 0.00049681, No Iterations 6
time step continuity errors : sum local = 2.86268e-06, global = 1.69553e-07, cumulative = 0.000253712
smoothSolver:  Solving for nuTilda, Initial residual = 0.0155887, Final residual = 0.00107685, No Iterations 2
ExecutionTime = 1.49 s  ClockTime = 2 s

Time = 90

smoothSolver:  Solving for Ux, Initial residual = 0.00302527, Final residual = 0.00029094, No Iterations 2
smoothSolver:  Solving for Uy, Initial residual = 0.00124743, Final residual = 5.95227e-05, No Iterations 4
GAMG:  Solving for p, Initial residual = 0.00537647, Final residual = 0.000536482, No Iterations 5
time step continuity errors : sum local = 3.09808e-06, global = -7.9715e-07, cumulative = 0.000252915
smoothSolver:  Solving for nuTilda, Initial residual = 0.0160506, Final residual = 0.0010912, No Iterations 2
ExecutionTime = 1.5 s  ClockTime = 2 s

Time = 91

smoothSolver:  Solving for Ux, Initial residual = 0.0029073, Final residual = 0.000275982, No Iterations 2
smoothSolver:  Solving for Uy, Initial residual = 0.00117476, Final residual = 5.5712e-05, No Iterations 4
GAMG:  Solving for p, Initial residual = 0.00498674, Final residual = 0.00049112, No Iterations 5
time step continuity errors : sum local = 2.841e-06, global = -5.98109e-07, cumulative = 0.000252317
smoothSolver:  Solving for nuTilda, Initial residual = 0.0165818, Final residual = 0.00110463, No Iterations 2
ExecutionTime = 1.52 s  ClockTime = 2 s

Time = 92

smoothSolver:  Solving for Ux, Initial residual = 0.00278414, Final residual = 0.000260831, No Iterations 2
smoothSolver:  Solving for Uy, Initial residual = 0.00110586, Final residual = 5.19285e-05, No Iterations 4
GAMG:  Solving for p, Initial residual = 0.00461159, Final residual = 0.000456397, No Iterations 5
time step continuity errors : sum local = 2.64358e-06, global = -5.61128e-07, cumulative = 0.000251756
smoothSolver:  Solving for nuTilda, Initial residual = 0.0171352, Final residual = 0.00111759, No Iterations 2
ExecutionTime = 1.54 s  ClockTime = 2 s

Time = 93

smoothSolver:  Solving for Ux, Initial residual = 0.00265838, Final residual = 0.000246128, No Iterations 2
smoothSolver:  Solving for Uy, Initial residual = 0.00103772, Final residual = 4.8331e-05, No Iterations 4
GAMG:  Solving for p, Initial residual = 0.00430007, Final residual = 0.000410173, No Iterations 5
time step continuity errors : sum local = 2.37912e-06, global = -4.93043e-07, cumulative = 0.000251263
smoothSolver:  Solving for nuTilda, Initial residual = 0.0177401, Final residual = 0.00112994, No Iterations 2
ExecutionTime = 1.55 s  ClockTime = 2 s

Time = 94

smoothSolver:  Solving for Ux, Initial residual = 0.00253907, Final residual = 0.000233236, No Iterations 2
smoothSolver:  Solving for Uy, Initial residual = 0.000972644, Final residual = 4.53352e-05, No Iterations 4
GAMG:  Solving for p, Initial residual = 0.00409581, Final residual = 0.000384363, No Iterations 6
time step continuity errors : sum local = 2.233e-06, global = 4.92912e-07, cumulative = 0.000251756
smoothSolver:  Solving for nuTilda, Initial residual = 0.0183999, Final residual = 0.00113972, No Iterations 2
ExecutionTime = 1.56 s  ClockTime = 2 s

Time = 95

smoothSolver:  Solving for Ux, Initial residual = 0.00243541, Final residual = 0.000223121, No Iterations 2
smoothSolver:  Solving for Uy, Initial residual = 0.000916063, Final residual = 4.30734e-05, No Iterations 4
GAMG:  Solving for p, Initial residual = 0.00393413, Final residual = 0.000367974, No Iterations 6
time step continuity errors : sum local = 2.1411e-06, global = 5.00729e-07, cumulative = 0.000252256
smoothSolver:  Solving for nuTilda, Initial residual = 0.0191195, Final residual = 0.00114756, No Iterations 2
ExecutionTime = 1.58 s  ClockTime = 2 s

Time = 96

smoothSolver:  Solving for Ux, Initial residual = 0.00233805, Final residual = 0.000215236, No Iterations 2
smoothSolver:  Solving for Uy, Initial residual = 0.000870471, Final residual = 4.15098e-05, No Iterations 4
GAMG:  Solving for p, Initial residual = 0.00375106, Final residual = 0.00036834, No Iterations 6
time step continuity errors : sum local = 2.1468e-06, global = 4.85266e-07, cumulative = 0.000252742
smoothSolver:  Solving for nuTilda, Initial residual = 0.019912, Final residual = 0.00115351, No Iterations 2
ExecutionTime = 1.59 s  ClockTime = 2 s

Time = 97

smoothSolver:  Solving for Ux, Initial residual = 0.00224286, Final residual = 0.000208896, No Iterations 2
smoothSolver:  Solving for Uy, Initial residual = 0.000835193, Final residual = 4.01704e-05, No Iterations 4
GAMG:  Solving for p, Initial residual = 0.00351379, Final residual = 0.000343777, No Iterations 6
time step continuity errors : sum local = 2.00689e-06, global = 4.36615e-07, cumulative = 0.000253178
smoothSolver:  Solving for nuTilda, Initial residual = 0.0207718, Final residual = 0.0011568, No Iterations 2
ExecutionTime = 1.62 s  ClockTime = 2 s

Time = 98

smoothSolver:  Solving for Ux, Initial residual = 0.00214723, Final residual = 0.000202792, No Iterations 2
smoothSolver:  Solving for Uy, Initial residual = 0.000802822, Final residual = 3.88052e-05, No Iterations 4
GAMG:  Solving for p, Initial residual = 0.00325215, Final residual = 0.000304837, No Iterations 5
time step continuity errors : sum local = 1.78224e-06, global = -4.8017e-07, cumulative = 0.000252698
smoothSolver:  Solving for nuTilda, Initial residual = 0.0217447, Final residual = 0.00115976, No Iterations 2
ExecutionTime = 1.63 s  ClockTime = 2 s

Time = 99

smoothSolver:  Solving for Ux, Initial residual = 0.00205004, Final residual = 0.000196169, No Iterations 2
smoothSolver:  Solving for Uy, Initial residual = 0.000773783, Final residual = 3.74414e-05, No Iterations 4
GAMG:  Solving for p, Initial residual = 0.00302432, Final residual = 0.000230048, No Iterations 5
time step continuity errors : sum local = 1.34707e-06, global = -2.48768e-07, cumulative = 0.000252449
smoothSolver:  Solving for nuTilda, Initial residual = 0.0227957, Final residual = 0.00116042, No Iterations 2
ExecutionTime = 1.64 s  ClockTime = 2 s

Time = 100

smoothSolver:  Solving for Ux, Initial residual = 0.00195989, Final residual = 0.000189947, No Iterations 2
smoothSolver:  Solving for Uy, Initial residual = 0.000748954, Final residual = 3.61121e-05, No Iterations 4
GAMG:  Solving for p, Initial residual = 0.00286364, Final residual = 0.000219935, No Iterations 5
time step continuity errors : sum local = 1.28947e-06, global = 1.20146e-07, cumulative = 0.000252569
smoothSolver:  Solving for nuTilda, Initial residual = 0.0239783, Final residual = 0.00115958, No Iterations 2
ExecutionTime = 1.69 s  ClockTime = 2 s

Time = 101

smoothSolver:  Solving for Ux, Initial residual = 0.00187507, Final residual = 0.000183608, No Iterations 2
smoothSolver:  Solving for Uy, Initial residual = 0.000724273, Final residual = 3.45142e-05, No Iterations 4
GAMG:  Solving for p, Initial residual = 0.00275134, Final residual = 0.000215744, No Iterations 5
time step continuity errors : sum local = 1.26614e-06, global = -7.13958e-09, cumulative = 0.000252562
smoothSolver:  Solving for nuTilda, Initial residual = 0.0252492, Final residual = 0.00115765, No Iterations 2
ExecutionTime = 1.71 s  ClockTime = 2 s

Time = 102

smoothSolver:  Solving for Ux, Initial residual = 0.00179207, Final residual = 0.000177432, No Iterations 2
smoothSolver:  Solving for Uy, Initial residual = 0.000696945, Final residual = 3.2954e-05, No Iterations 4
GAMG:  Solving for p, Initial residual = 0.00262455, Final residual = 0.000238862, No Iterations 5
time step continuity errors : sum local = 1.40331e-06, global = 1.87499e-08, cumulative = 0.000252581
smoothSolver:  Solving for nuTilda, Initial residual = 0.0265603, Final residual = 0.00115191, No Iterations 2
ExecutionTime = 1.73 s  ClockTime = 2 s

Time = 103

smoothSolver:  Solving for Ux, Initial residual = 0.00171459, Final residual = 4.62958e-05, No Iterations 4
smoothSolver:  Solving for Uy, Initial residual = 0.000671153, Final residual = 3.13933e-05, No Iterations 4
GAMG:  Solving for p, Initial residual = 0.00253498, Final residual = 0.000242646, No Iterations 5
time step continuity errors : sum local = 1.42719e-06, global = 4.1319e-08, cumulative = 0.000252622
smoothSolver:  Solving for nuTilda, Initial residual = 0.0277265, Final residual = 0.00113681, No Iterations 2
ExecutionTime = 1.74 s  ClockTime = 2 s

Time = 104

smoothSolver:  Solving for Ux, Initial residual = 0.00163795, Final residual = 4.43057e-05, No Iterations 4
smoothSolver:  Solving for Uy, Initial residual = 0.000646512, Final residual = 2.99838e-05, No Iterations 4
GAMG:  Solving for p, Initial residual = 0.00240531, Final residual = 0.000240038, No Iterations 5
time step continuity errors : sum local = 1.41273e-06, global = 3.28847e-08, cumulative = 0.000252655
smoothSolver:  Solving for nuTilda, Initial residual = 0.0280087, Final residual = 0.00108344, No Iterations 2
ExecutionTime = 1.76 s  ClockTime = 2 s

Time = 105

smoothSolver:  Solving for Ux, Initial residual = 0.00156767, Final residual = 4.25573e-05, No Iterations 4
smoothSolver:  Solving for Uy, Initial residual = 0.000622578, Final residual = 2.89512e-05, No Iterations 4
GAMG:  Solving for p, Initial residual = 0.00225935, Final residual = 0.00021747, No Iterations 6
time step continuity errors : sum local = 1.28091e-06, global = -1.01249e-07, cumulative = 0.000252554
smoothSolver:  Solving for nuTilda, Initial residual = 0.0268325, Final residual = 0.000978021, No Iterations 2
ExecutionTime = 1.77 s  ClockTime = 2 s

Time = 106

smoothSolver:  Solving for Ux, Initial residual = 0.00150541, Final residual = 4.08036e-05, No Iterations 4
smoothSolver:  Solving for Uy, Initial residual = 0.000601866, Final residual = 2.77694e-05, No Iterations 4
GAMG:  Solving for p, Initial residual = 0.00215309, Final residual = 0.000208419, No Iterations 5
time step continuity errors : sum local = 1.22927e-06, global = 1.23836e-07, cumulative = 0.000252678
smoothSolver:  Solving for nuTilda, Initial residual = 0.0250838, Final residual = 0.000863651, No Iterations 2
ExecutionTime = 1.79 s  ClockTime = 2 s

Time = 107

smoothSolver:  Solving for Ux, Initial residual = 0.00145085, Final residual = 3.91495e-05, No Iterations 4
smoothSolver:  Solving for Uy, Initial residual = 0.000584353, Final residual = 2.66805e-05, No Iterations 4
GAMG:  Solving for p, Initial residual = 0.00207495, Final residual = 0.000178119, No Iterations 5
time step continuity errors : sum local = 1.05239e-06, global = 1.04015e-07, cumulative = 0.000252782
smoothSolver:  Solving for nuTilda, Initial residual = 0.0231903, Final residual = 0.000756529, No Iterations 2
ExecutionTime = 1.8 s  ClockTime = 2 s

Time = 108

smoothSolver:  Solving for Ux, Initial residual = 0.00140134, Final residual = 3.75854e-05, No Iterations 4
smoothSolver:  Solving for Uy, Initial residual = 0.000569632, Final residual = 2.55728e-05, No Iterations 4
GAMG:  Solving for p, Initial residual = 0.00201057, Final residual = 0.000171041, No Iterations 5
time step continuity errors : sum local = 1.01246e-06, global = 1.10432e-07, cumulative = 0.000252892
smoothSolver:  Solving for nuTilda, Initial residual = 0.021181, Final residual = 0.000658505, No Iterations 2
ExecutionTime = 1.82 s  ClockTime = 2 s

Time = 109

smoothSolver:  Solving for Ux, Initial residual = 0.00135287, Final residual = 0.000135096, No Iterations 2
smoothSolver:  Solving for Uy, Initial residual = 0.000556875, Final residual = 2.4675e-05, No Iterations 4
GAMG:  Solving for p, Initial residual = 0.00192905, Final residual = 0.000176998, No Iterations 5
time step continuity errors : sum local = 1.04941e-06, global = 4.63263e-08, cumulative = 0.000252939
smoothSolver:  Solving for nuTilda, Initial residual = 0.0190902, Final residual = 0.000569971, No Iterations 2
ExecutionTime = 1.84 s  ClockTime = 2 s

Time = 110

smoothSolver:  Solving for Ux, Initial residual = 0.0013106, Final residual = 3.49702e-05, No Iterations 4
smoothSolver:  Solving for Uy, Initial residual = 0.000545793, Final residual = 2.39733e-05, No Iterations 4
GAMG:  Solving for p, Initial residual = 0.00187431, Final residual = 0.000162698, No Iterations 6
time step continuity errors : sum local = 9.66401e-07, global = -2.27374e-07, cumulative = 0.000252711
smoothSolver:  Solving for nuTilda, Initial residual = 0.0169727, Final residual = 0.000493797, No Iterations 2
ExecutionTime = 1.86 s  ClockTime = 2 s

Time = 111

smoothSolver:  Solving for Ux, Initial residual = 0.00126629, Final residual = 0.000125376, No Iterations 2
smoothSolver:  Solving for Uy, Initial residual = 0.000538396, Final residual = 2.34478e-05, No Iterations 4
GAMG:  Solving for p, Initial residual = 0.00174992, Final residual = 0.000156699, No Iterations 6
time step continuity errors : sum local = 9.31756e-07, global = -2.06741e-07, cumulative = 0.000252504
smoothSolver:  Solving for nuTilda, Initial residual = 0.0148796, Final residual = 0.000428285, No Iterations 2
ExecutionTime = 1.87 s  ClockTime = 2 s

Time = 112

smoothSolver:  Solving for Ux, Initial residual = 0.00122595, Final residual = 0.000121012, No Iterations 2
smoothSolver:  Solving for Uy, Initial residual = 0.000531247, Final residual = 2.28971e-05, No Iterations 4
GAMG:  Solving for p, Initial residual = 0.00163749, Final residual = 0.000160311, No Iterations 5
time step continuity errors : sum local = 9.5432e-07, global = 1.63235e-07, cumulative = 0.000252668
smoothSolver:  Solving for nuTilda, Initial residual = 0.0128201, Final residual = 0.000374321, No Iterations 2
ExecutionTime = 1.89 s  ClockTime = 2 s

Time = 113

smoothSolver:  Solving for Ux, Initial residual = 0.00118783, Final residual = 0.000117141, No Iterations 2
smoothSolver:  Solving for Uy, Initial residual = 0.000524325, Final residual = 2.24415e-05, No Iterations 4
GAMG:  Solving for p, Initial residual = 0.00154013, Final residual = 0.000129326, No Iterations 5
time step continuity errors : sum local = 7.70762e-07, global = 7.62324e-08, cumulative = 0.000252744
smoothSolver:  Solving for nuTilda, Initial residual = 0.0109277, Final residual = 0.000331049, No Iterations 2
ExecutionTime = 1.91 s  ClockTime = 2 s

Time = 114

smoothSolver:  Solving for Ux, Initial residual = 0.00115356, Final residual = 0.000113375, No Iterations 2
smoothSolver:  Solving for Uy, Initial residual = 0.000516899, Final residual = 2.19736e-05, No Iterations 4
GAMG:  Solving for p, Initial residual = 0.00148109, Final residual = 0.000143907, No Iterations 4
time step continuity errors : sum local = 8.58754e-07, global = -5.88593e-08, cumulative = 0.000252685
smoothSolver:  Solving for nuTilda, Initial residual = 0.00917981, Final residual = 0.000297214, No Iterations 2
ExecutionTime = 1.92 s  ClockTime = 2 s

Time = 115

smoothSolver:  Solving for Ux, Initial residual = 0.00112325, Final residual = 0.000109384, No Iterations 2
smoothSolver:  Solving for Uy, Initial residual = 0.000508309, Final residual = 2.13699e-05, No Iterations 4
GAMG:  Solving for p, Initial residual = 0.00142396, Final residual = 0.000116504, No Iterations 5
time step continuity errors : sum local = 6.9608e-07, global = 3.57788e-08, cumulative = 0.000252721
smoothSolver:  Solving for nuTilda, Initial residual = 0.00763541, Final residual = 0.000271406, No Iterations 2
ExecutionTime = 1.93 s  ClockTime = 2 s

Time = 116

smoothSolver:  Solving for Ux, Initial residual = 0.00109282, Final residual = 0.000106025, No Iterations 2
smoothSolver:  Solving for Uy, Initial residual = 0.000505076, Final residual = 2.12211e-05, No Iterations 4
GAMG:  Solving for p, Initial residual = 0.0013747, Final residual = 0.000121377, No Iterations 5
time step continuity errors : sum local = 7.26001e-07, global = -2.92084e-08, cumulative = 0.000252692
smoothSolver:  Solving for nuTilda, Initial residual = 0.006335, Final residual = 0.000251725, No Iterations 2
ExecutionTime = 1.95 s  ClockTime = 2 s

Time = 117

smoothSolver:  Solving for Ux, Initial residual = 0.00106385, Final residual = 0.000102663, No Iterations 2
smoothSolver:  Solving for Uy, Initial residual = 0.000502143, Final residual = 2.10546e-05, No Iterations 4
GAMG:  Solving for p, Initial residual = 0.00133578, Final residual = 0.000121063, No Iterations 5
time step continuity errors : sum local = 7.24855e-07, global = -3.79475e-08, cumulative = 0.000252654
smoothSolver:  Solving for nuTilda, Initial residual = 0.00522319, Final residual = 0.000236677, No Iterations 2
ExecutionTime = 1.96 s  ClockTime = 2 s

Time = 118

smoothSolver:  Solving for Ux, Initial residual = 0.00103668, Final residual = 9.91943e-05, No Iterations 2
smoothSolver:  Solving for Uy, Initial residual = 0.000497996, Final residual = 2.08051e-05, No Iterations 4
GAMG:  Solving for p, Initial residual = 0.00130124, Final residual = 0.000115012, No Iterations 5
time step continuity errors : sum local = 6.89257e-07, global = -2.54947e-08, cumulative = 0.000252628
smoothSolver:  Solving for nuTilda, Initial residual = 0.0043624, Final residual = 0.000225045, No Iterations 2
ExecutionTime = 1.98 s  ClockTime = 2 s

Time = 119

smoothSolver:  Solving for Ux, Initial residual = 0.00101171, Final residual = 9.57992e-05, No Iterations 2
smoothSolver:  Solving for Uy, Initial residual = 0.000493003, Final residual = 2.0499e-05, No Iterations 4
GAMG:  Solving for p, Initial residual = 0.0012622, Final residual = 0.000108274, No Iterations 5
time step continuity errors : sum local = 6.49447e-07, global = 2.44815e-08, cumulative = 0.000252653
smoothSolver:  Solving for nuTilda, Initial residual = 0.00365901, Final residual = 0.000216387, No Iterations 2
ExecutionTime = 1.99 s  ClockTime = 2 s

Time = 120

smoothSolver:  Solving for Ux, Initial residual = 0.000987462, Final residual = 9.26883e-05, No Iterations 2
smoothSolver:  Solving for Uy, Initial residual = 0.000487817, Final residual = 2.01718e-05, No Iterations 4
GAMG:  Solving for p, Initial residual = 0.00121946, Final residual = 0.000101059, No Iterations 5
time step continuity errors : sum local = 6.06681e-07, global = 2.92803e-08, cumulative = 0.000252682
smoothSolver:  Solving for nuTilda, Initial residual = 0.00311771, Final residual = 0.00020906, No Iterations 2
ExecutionTime = 2.01 s  ClockTime = 2 s

Time = 121

smoothSolver:  Solving for Ux, Initial residual = 0.000964212, Final residual = 8.98922e-05, No Iterations 2
smoothSolver:  Solving for Uy, Initial residual = 0.000482255, Final residual = 1.98595e-05, No Iterations 4
GAMG:  Solving for p, Initial residual = 0.00117974, Final residual = 9.44989e-05, No Iterations 5
time step continuity errors : sum local = 5.67786e-07, global = 3.847e-08, cumulative = 0.00025272
smoothSolver:  Solving for nuTilda, Initial residual = 0.0027091, Final residual = 0.000202836, No Iterations 2
ExecutionTime = 2.03 s  ClockTime = 2 s

Time = 122

smoothSolver:  Solving for Ux, Initial residual = 0.000941742, Final residual = 8.73232e-05, No Iterations 2
smoothSolver:  Solving for Uy, Initial residual = 0.000476086, Final residual = 1.96176e-05, No Iterations 4
GAMG:  Solving for p, Initial residual = 0.00114239, Final residual = 8.773e-05, No Iterations 5
time step continuity errors : sum local = 5.2756e-07, global = 4.18597e-08, cumulative = 0.000252762
smoothSolver:  Solving for nuTilda, Initial residual = 0.00240537, Final residual = 0.000197108, No Iterations 2
ExecutionTime = 2.04 s  ClockTime = 2 s

Time = 123

smoothSolver:  Solving for Ux, Initial residual = 0.000919781, Final residual = 8.48798e-05, No Iterations 2
smoothSolver:  Solving for Uy, Initial residual = 0.000470476, Final residual = 1.9393e-05, No Iterations 4
GAMG:  Solving for p, Initial residual = 0.0011104, Final residual = 0.000108765, No Iterations 4
time step continuity errors : sum local = 6.54591e-07, global = -7.45917e-08, cumulative = 0.000252688
smoothSolver:  Solving for nuTilda, Initial residual = 0.0021765, Final residual = 0.000191969, No Iterations 2
ExecutionTime = 2.05 s  ClockTime = 2 s

Time = 124

smoothSolver:  Solving for Ux, Initial residual = 0.000898282, Final residual = 8.23493e-05, No Iterations 2
smoothSolver:  Solving for Uy, Initial residual = 0.000463333, Final residual = 1.89993e-05, No Iterations 4
GAMG:  Solving for p, Initial residual = 0.00107506, Final residual = 8.83712e-05, No Iterations 5
time step continuity errors : sum local = 5.32296e-07, global = 6.17261e-08, cumulative = 0.000252749
smoothSolver:  Solving for nuTilda, Initial residual = 0.00200903, Final residual = 0.000186858, No Iterations 2
ExecutionTime = 2.07 s  ClockTime = 2 s

Time = 125

smoothSolver:  Solving for Ux, Initial residual = 0.000877433, Final residual = 8.03126e-05, No Iterations 2
smoothSolver:  Solving for Uy, Initial residual = 0.000458732, Final residual = 1.8872e-05, No Iterations 4
GAMG:  Solving for p, Initial residual = 0.00105252, Final residual = 8.81558e-05, No Iterations 5
time step continuity errors : sum local = 5.31414e-07, global = 5.59115e-08, cumulative = 0.000252805
smoothSolver:  Solving for nuTilda, Initial residual = 0.00188541, Final residual = 0.000181637, No Iterations 2
ExecutionTime = 2.08 s  ClockTime = 2 s

Time = 126

smoothSolver:  Solving for Ux, Initial residual = 0.00085747, Final residual = 7.83033e-05, No Iterations 2
smoothSolver:  Solving for Uy, Initial residual = 0.000453271, Final residual = 1.86676e-05, No Iterations 4
GAMG:  Solving for p, Initial residual = 0.00103812, Final residual = 8.67347e-05, No Iterations 5
time step continuity errors : sum local = 5.23256e-07, global = 6.47118e-08, cumulative = 0.00025287
smoothSolver:  Solving for nuTilda, Initial residual = 0.00179898, Final residual = 0.00017629, No Iterations 2
ExecutionTime = 2.1 s  ClockTime = 2 s

Time = 127

smoothSolver:  Solving for Ux, Initial residual = 0.000838085, Final residual = 7.62394e-05, No Iterations 2
smoothSolver:  Solving for Uy, Initial residual = 0.000446134, Final residual = 1.83513e-05, No Iterations 4
GAMG:  Solving for p, Initial residual = 0.00102178, Final residual = 8.48484e-05, No Iterations 5
time step continuity errors : sum local = 5.12265e-07, global = 6.9884e-08, cumulative = 0.00025294
smoothSolver:  Solving for nuTilda, Initial residual = 0.00172931, Final residual = 0.000170908, No Iterations 2
ExecutionTime = 2.11 s  ClockTime = 2 s

Time = 128

smoothSolver:  Solving for Ux, Initial residual = 0.000819155, Final residual = 7.42081e-05, No Iterations 2
smoothSolver:  Solving for Uy, Initial residual = 0.000437837, Final residual = 1.79784e-05, No Iterations 4
GAMG:  Solving for p, Initial residual = 0.000998649, Final residual = 8.25973e-05, No Iterations 5
time step continuity errors : sum local = 4.99045e-07, global = 7.0229e-08, cumulative = 0.00025301
smoothSolver:  Solving for nuTilda, Initial residual = 0.00167241, Final residual = 0.000165355, No Iterations 2
ExecutionTime = 2.13 s  ClockTime = 2 s

Time = 129

smoothSolver:  Solving for Ux, Initial residual = 0.000800811, Final residual = 7.2297e-05, No Iterations 2
smoothSolver:  Solving for Uy, Initial residual = 0.00042922, Final residual = 1.76059e-05, No Iterations 4
GAMG:  Solving for p, Initial residual = 0.000972397, Final residual = 8.0065e-05, No Iterations 5
time step continuity errors : sum local = 4.84103e-07, global = 6.7978e-08, cumulative = 0.000253078
smoothSolver:  Solving for nuTilda, Initial residual = 0.00162202, Final residual = 0.000159677, No Iterations 2
ExecutionTime = 2.15 s  ClockTime = 2 s

Time = 130

smoothSolver:  Solving for Ux, Initial residual = 0.000783125, Final residual = 7.05173e-05, No Iterations 2
smoothSolver:  Solving for Uy, Initial residual = 0.000420732, Final residual = 1.72552e-05, No Iterations 4
GAMG:  Solving for p, Initial residual = 0.000948111, Final residual = 7.7261e-05, No Iterations 5
time step continuity errors : sum local = 4.67495e-07, global = 6.50183e-08, cumulative = 0.000253143
smoothSolver:  Solving for nuTilda, Initial residual = 0.00157371, Final residual = 0.000154, No Iterations 2
ExecutionTime = 2.16 s  ClockTime = 2 s

Time = 131

smoothSolver:  Solving for Ux, Initial residual = 0.000765992, Final residual = 6.88239e-05, No Iterations 2
smoothSolver:  Solving for Uy, Initial residual = 0.000412312, Final residual = 1.69174e-05, No Iterations 4
GAMG:  Solving for p, Initial residual = 0.000926005, Final residual = 7.43562e-05, No Iterations 5
time step continuity errors : sum local = 4.5025e-07, global = 6.2865e-08, cumulative = 0.000253206
smoothSolver:  Solving for nuTilda, Initial residual = 0.00152509, Final residual = 0.000148306, No Iterations 2
ExecutionTime = 2.18 s  ClockTime = 2 s

Time = 132

smoothSolver:  Solving for Ux, Initial residual = 0.000749343, Final residual = 6.71763e-05, No Iterations 2
smoothSolver:  Solving for Uy, Initial residual = 0.000403735, Final residual = 1.65778e-05, No Iterations 4
GAMG:  Solving for p, Initial residual = 0.000906364, Final residual = 8.95262e-05, No Iterations 4
time step continuity errors : sum local = 5.42501e-07, global = -8.54797e-08, cumulative = 0.000253121
smoothSolver:  Solving for nuTilda, Initial residual = 0.00147716, Final residual = 0.000142622, No Iterations 2
ExecutionTime = 2.19 s  ClockTime = 2 s

Time = 133

smoothSolver:  Solving for Ux, Initial residual = 0.000733155, Final residual = 6.54263e-05, No Iterations 2
smoothSolver:  Solving for Uy, Initial residual = 0.000393742, Final residual = 1.61124e-05, No Iterations 4
GAMG:  Solving for p, Initial residual = 0.000883037, Final residual = 7.59595e-05, No Iterations 5
time step continuity errors : sum local = 4.60629e-07, global = 8.44366e-08, cumulative = 0.000253205
smoothSolver:  Solving for nuTilda, Initial residual = 0.00143067, Final residual = 0.000137005, No Iterations 2
ExecutionTime = 2.21 s  ClockTime = 2 s

Time = 134

smoothSolver:  Solving for Ux, Initial residual = 0.000717371, Final residual = 6.40137e-05, No Iterations 2
smoothSolver:  Solving for Uy, Initial residual = 0.000385581, Final residual = 1.58612e-05, No Iterations 4
GAMG:  Solving for p, Initial residual = 0.000863427, Final residual = 7.07904e-05, No Iterations 5
time step continuity errors : sum local = 4.29566e-07, global = 6.38359e-08, cumulative = 0.000253269
smoothSolver:  Solving for nuTilda, Initial residual = 0.00138602, Final residual = 0.000131408, No Iterations 2
ExecutionTime = 2.22 s  ClockTime = 2 s

Time = 135

smoothSolver:  Solving for Ux, Initial residual = 0.000701933, Final residual = 6.25921e-05, No Iterations 2
smoothSolver:  Solving for Uy, Initial residual = 0.00037705, Final residual = 1.55634e-05, No Iterations 4
GAMG:  Solving for p, Initial residual = 0.000846757, Final residual = 8.15293e-05, No Iterations 4
time step continuity errors : sum local = 4.95065e-07, global = -8.21367e-08, cumulative = 0.000253187
smoothSolver:  Solving for nuTilda, Initial residual = 0.001343, Final residual = 0.000125875, No Iterations 2
ExecutionTime = 2.24 s  ClockTime = 2 s

Time = 136

smoothSolver:  Solving for Ux, Initial residual = 0.000686705, Final residual = 6.09682e-05, No Iterations 2
smoothSolver:  Solving for Uy, Initial residual = 0.000366571, Final residual = 1.50793e-05, No Iterations 4
GAMG:  Solving for p, Initial residual = 0.000826073, Final residual = 8.2022e-05, No Iterations 4
[...]

Time = 280

smoothSolver:  Solving for Ux, Initial residual = 1.60479e-05, Final residual = 1.52455e-06, No Iterations 2
smoothSolver:  Solving for Uy, Initial residual = 7.26039e-06, Final residual = 3.13227e-07, No Iterations 4
GAMG:  Solving for p, Initial residual = 1.70016e-05, Final residual = 1.39843e-06, No Iterations 5
time step continuity errors : sum local = 8.71443e-09, global = 1.80388e-09, cumulative = 0.000252144
smoothSolver:  Solving for nuTilda, Initial residual = 2.34108e-05, Final residual = 2.32667e-06, No Iterations 2
ExecutionTime = 4.54 s  ClockTime = 5 s

Time = 281

smoothSolver:  Solving for Ux, Initial residual = 1.56255e-05, Final residual = 1.48667e-06, No Iterations 2
smoothSolver:  Solving for Uy, Initial residual = 7.08563e-06, Final residual = 3.06606e-07, No Iterations 4
GAMG:  Solving for p, Initial residual = 1.65538e-05, Final residual = 1.30903e-06, No Iterations 5
time step continuity errors : sum local = 8.15743e-09, global = 1.41401e-09, cumulative = 0.000252146
smoothSolver:  Solving for nuTilda, Initial residual = 2.28176e-05, Final residual = 2.27417e-06, No Iterations 2
ExecutionTime = 4.55 s  ClockTime = 5 s

Time = 282

smoothSolver:  Solving for Ux, Initial residual = 1.52196e-05, Final residual = 1.44933e-06, No Iterations 2
smoothSolver:  Solving for Uy, Initial residual = 6.91377e-06, Final residual = 2.99633e-07, No Iterations 4
GAMG:  Solving for p, Initial residual = 1.62001e-05, Final residual = 1.58224e-06, No Iterations 4
time step continuity errors : sum local = 9.86017e-09, global = -1.76159e-09, cumulative = 0.000252144
smoothSolver:  Solving for nuTilda, Initial residual = 2.22383e-05, Final residual = 2.22305e-06, No Iterations 2
ExecutionTime = 4.56 s  ClockTime = 5 s

Time = 283

smoothSolver:  Solving for Ux, Initial residual = 1.48338e-05, Final residual = 1.40881e-06, No Iterations 2
smoothSolver:  Solving for Uy, Initial residual = 6.71581e-06, Final residual = 2.89694e-07, No Iterations 4
GAMG:  Solving for p, Initial residual = 1.5716e-05, Final residual = 1.29378e-06, No Iterations 5
time step continuity errors : sum local = 8.06265e-09, global = 1.67011e-09, cumulative = 0.000252146
smoothSolver:  Solving for nuTilda, Initial residual = 2.1674e-05, Final residual = 6.01554e-07, No Iterations 4
ExecutionTime = 4.58 s  ClockTime = 5 s

Time = 284

smoothSolver:  Solving for Ux, Initial residual = 1.44437e-05, Final residual = 1.37381e-06, No Iterations 2
smoothSolver:  Solving for Uy, Initial residual = 6.55418e-06, Final residual = 2.83563e-07, No Iterations 4
GAMG:  Solving for p, Initial residual = 1.5303e-05, Final residual = 1.21311e-06, No Iterations 5
time step continuity errors : sum local = 7.56001e-09, global = 1.31257e-09, cumulative = 0.000252147
smoothSolver:  Solving for nuTilda, Initial residual = 2.10713e-05, Final residual = 2.09885e-06, No Iterations 2
ExecutionTime = 4.59 s  ClockTime = 5 s

Time = 285

smoothSolver:  Solving for Ux, Initial residual = 1.40687e-05, Final residual = 1.33935e-06, No Iterations 2
smoothSolver:  Solving for Uy, Initial residual = 6.39536e-06, Final residual = 2.77116e-07, No Iterations 4
GAMG:  Solving for p, Initial residual = 1.49814e-05, Final residual = 1.46351e-06, No Iterations 4
time step continuity errors : sum local = 9.12065e-09, global = -1.63418e-09, cumulative = 0.000252145
smoothSolver:  Solving for nuTilda, Initial residual = 2.05417e-05, Final residual = 2.05165e-06, No Iterations 2
ExecutionTime = 4.61 s  ClockTime = 5 s

Time = 286

smoothSolver:  Solving for Ux, Initial residual = 1.37122e-05, Final residual = 1.30195e-06, No Iterations 2
smoothSolver:  Solving for Uy, Initial residual = 6.21234e-06, Final residual = 2.67928e-07, No Iterations 4
GAMG:  Solving for p, Initial residual = 1.45308e-05, Final residual = 1.19647e-06, No Iterations 5
time step continuity errors : sum local = 7.4565e-09, global = 1.54681e-09, cumulative = 0.000252147
smoothSolver:  Solving for nuTilda, Initial residual = 2.0022e-05, Final residual = 5.5486e-07, No Iterations 4
ExecutionTime = 4.62 s  ClockTime = 5 s

Time = 287

smoothSolver:  Solving for Ux, Initial residual = 1.33518e-05, Final residual = 1.26965e-06, No Iterations 2
smoothSolver:  Solving for Uy, Initial residual = 6.06269e-06, Final residual = 2.62258e-07, No Iterations 4
GAMG:  Solving for p, Initial residual = 1.4153e-05, Final residual = 1.12059e-06, No Iterations 5
time step continuity errors : sum local = 6.9837e-09, global = 1.21456e-09, cumulative = 0.000252148
smoothSolver:  Solving for nuTilda, Initial residual = 1.94657e-05, Final residual = 1.93698e-06, No Iterations 2
ExecutionTime = 4.64 s  ClockTime = 5 s

Time = 288

smoothSolver:  Solving for Ux, Initial residual = 1.30053e-05, Final residual = 1.23783e-06, No Iterations 2
smoothSolver:  Solving for Uy, Initial residual = 5.91548e-06, Final residual = 2.56288e-07, No Iterations 4
GAMG:  Solving for p, Initial residual = 1.38527e-05, Final residual = 1.35179e-06, No Iterations 4
time step continuity errors : sum local = 8.42473e-09, global = -1.50956e-09, cumulative = 0.000252147
smoothSolver:  Solving for nuTilda, Initial residual = 1.89741e-05, Final residual = 1.8934e-06, No Iterations 2
ExecutionTime = 4.65 s  ClockTime = 5 s

Time = 289

smoothSolver:  Solving for Ux, Initial residual = 1.2676e-05, Final residual = 1.20329e-06, No Iterations 2
smoothSolver:  Solving for Uy, Initial residual = 5.74589e-06, Final residual = 2.47779e-07, No Iterations 4
GAMG:  Solving for p, Initial residual = 1.34406e-05, Final residual = 1.10538e-06, No Iterations 5
time step continuity errors : sum local = 6.88912e-09, global = 1.43063e-09, cumulative = 0.000252148
smoothSolver:  Solving for nuTilda, Initial residual = 1.8491e-05, Final residual = 5.11766e-07, No Iterations 4
ExecutionTime = 4.67 s  ClockTime = 5 s

Time = 290

smoothSolver:  Solving for Ux, Initial residual = 1.23431e-05, Final residual = 1.17347e-06, No Iterations 2
smoothSolver:  Solving for Uy, Initial residual = 5.60725e-06, Final residual = 2.42523e-07, No Iterations 4
GAMG:  Solving for p, Initial residual = 1.30888e-05, Final residual = 1.03619e-06, No Iterations 5
time step continuity errors : sum local = 6.45796e-09, global = 1.12448e-09, cumulative = 0.000252149
smoothSolver:  Solving for nuTilda, Initial residual = 1.79792e-05, Final residual = 1.78748e-06, No Iterations 2
ExecutionTime = 4.68 s  ClockTime = 5 s

Time = 291

smoothSolver:  Solving for Ux, Initial residual = 1.20229e-05, Final residual = 1.1441e-06, No Iterations 2
smoothSolver:  Solving for Uy, Initial residual = 5.47103e-06, Final residual = 2.36998e-07, No Iterations 4
GAMG:  Solving for p, Initial residual = 1.28131e-05, Final residual = 1.25101e-06, No Iterations 4
time step continuity errors : sum local = 7.79687e-09, global = -1.39682e-09, cumulative = 0.000252148
smoothSolver:  Solving for nuTilda, Initial residual = 1.75328e-05, Final residual = 1.74728e-06, No Iterations 2
ExecutionTime = 4.7 s  ClockTime = 5 s

Time = 292

smoothSolver:  Solving for Ux, Initial residual = 1.17185e-05, Final residual = 1.11221e-06, No Iterations 2
smoothSolver:  Solving for Uy, Initial residual = 5.31418e-06, Final residual = 2.29133e-07, No Iterations 4
GAMG:  Solving for p, Initial residual = 1.24292e-05, Final residual = 1.02336e-06, No Iterations 5
time step continuity errors : sum local = 6.37817e-09, global = 1.32384e-09, cumulative = 0.000252149
smoothSolver:  Solving for nuTilda, Initial residual = 1.70941e-05, Final residual = 1.70796e-06, No Iterations 2
ExecutionTime = 4.72 s  ClockTime = 5 s

Time = 293

smoothSolver:  Solving for Ux, Initial residual = 1.14107e-05, Final residual = 1.08467e-06, No Iterations 2
smoothSolver:  Solving for Uy, Initial residual = 5.18589e-06, Final residual = 2.24275e-07, No Iterations 4
GAMG:  Solving for p, Initial residual = 1.21019e-05, Final residual = 9.58219e-07, No Iterations 5
time step continuity errors : sum local = 5.97221e-09, global = 1.03913e-09, cumulative = 0.00025215
smoothSolver:  Solving for nuTilda, Initial residual = 1.66674e-05, Final residual = 4.6178e-07, No Iterations 4
ExecutionTime = 4.73 s  ClockTime = 5 s

Time = 294

smoothSolver:  Solving for Ux, Initial residual = 1.11149e-05, Final residual = 1.05754e-06, No Iterations 2
smoothSolver:  Solving for Uy, Initial residual = 5.05966e-06, Final residual = 2.19161e-07, No Iterations 4
GAMG:  Solving for p, Initial residual = 1.18468e-05, Final residual = 1.15736e-06, No Iterations 4
time step continuity errors : sum local = 7.21347e-09, global = -1.29301e-09, cumulative = 0.000252149
smoothSolver:  Solving for nuTilda, Initial residual = 1.62099e-05, Final residual = 1.61244e-06, No Iterations 2
ExecutionTime = 4.75 s  ClockTime = 5 s

Time = 295

smoothSolver:  Solving for Ux, Initial residual = 1.08336e-05, Final residual = 1.02807e-06, No Iterations 2
smoothSolver:  Solving for Uy, Initial residual = 4.91433e-06, Final residual = 2.11877e-07, No Iterations 4
GAMG:  Solving for p, Initial residual = 1.14911e-05, Final residual = 9.45836e-07, No Iterations 5
time step continuity errors : sum local = 5.89515e-09, global = 1.22459e-09, cumulative = 0.00025215
smoothSolver:  Solving for nuTilda, Initial residual = 1.58054e-05, Final residual = 1.57596e-06, No Iterations 2
ExecutionTime = 4.76 s  ClockTime = 5 s

Time = 296

smoothSolver:  Solving for Ux, Initial residual = 1.0549e-05, Final residual = 1.00262e-06, No Iterations 2
smoothSolver:  Solving for Uy, Initial residual = 4.79541e-06, Final residual = 2.07372e-07, No Iterations 4
GAMG:  Solving for p, Initial residual = 1.11881e-05, Final residual = 8.8501e-07, No Iterations 5
time step continuity errors : sum local = 5.51609e-09, global = 9.61542e-10, cumulative = 0.000252151
smoothSolver:  Solving for nuTilda, Initial residual = 1.54094e-05, Final residual = 1.54033e-06, No Iterations 2
ExecutionTime = 4.78 s  ClockTime = 5 s

Time = 297

smoothSolver:  Solving for Ux, Initial residual = 1.02755e-05, Final residual = 9.77557e-07, No Iterations 2
smoothSolver:  Solving for Uy, Initial residual = 4.67847e-06, Final residual = 2.02633e-07, No Iterations 4
GAMG:  Solving for p, Initial residual = 1.09523e-05, Final residual = 1.06756e-06, No Iterations 4
time step continuity errors : sum local = 6.65398e-09, global = -1.19363e-09, cumulative = 0.00025215
smoothSolver:  Solving for nuTilda, Initial residual = 1.50246e-05, Final residual = 4.16504e-07, No Iterations 4
ExecutionTime = 4.79 s  ClockTime = 5 s

Time = 298

smoothSolver:  Solving for Ux, Initial residual = 1.00155e-05, Final residual = 9.50353e-07, No Iterations 2
smoothSolver:  Solving for Uy, Initial residual = 4.54394e-06, Final residual = 1.95896e-07, No Iterations 4
GAMG:  Solving for p, Initial residual = 1.06267e-05, Final residual = 8.7365e-07, No Iterations 5
time step continuity errors : sum local = 5.4454e-09, global = 1.13305e-09, cumulative = 0.000252151
smoothSolver:  Solving for nuTilda, Initial residual = 1.46103e-05, Final residual = 1.45394e-06, No Iterations 2
ExecutionTime = 4.81 s  ClockTime = 5 s

Time = 299

smoothSolver:  Solving for Ux, Initial residual = 9.75252e-06, Final residual = 9.26864e-07, No Iterations 2
smoothSolver:  Solving for Uy, Initial residual = 4.4339e-06, Final residual = 1.91729e-07, No Iterations 4
GAMG:  Solving for p, Initial residual = 1.03478e-05, Final residual = 8.17703e-07, No Iterations 5
time step continuity errors : sum local = 5.09673e-09, global = 8.8942e-10, cumulative = 0.000252152
smoothSolver:  Solving for nuTilda, Initial residual = 1.42446e-05, Final residual = 1.42096e-06, No Iterations 2
ExecutionTime = 4.82 s  ClockTime = 5 s

Time = 300

smoothSolver:  Solving for Ux, Initial residual = 9.49969e-06, Final residual = 9.03722e-07, No Iterations 2
smoothSolver:  Solving for Uy, Initial residual = 4.3257e-06, Final residual = 1.87348e-07, No Iterations 4
GAMG:  Solving for p, Initial residual = 1.01293e-05, Final residual = 9.86917e-07, No Iterations 4
time step continuity errors : sum local = 6.15149e-09, global = -1.10374e-09, cumulative = 0.000252151
smoothSolver:  Solving for nuTilda, Initial residual = 1.38865e-05, Final residual = 3.83857e-07, No Iterations 4
ExecutionTime = 4.87 s  ClockTime = 5 s

Time = 301

smoothSolver:  Solving for Ux, Initial residual = 9.25934e-06, Final residual = 8.78586e-07, No Iterations 2
smoothSolver:  Solving for Uy, Initial residual = 4.20119e-06, Final residual = 1.81117e-07, No Iterations 4
GAMG:  Solving for p, Initial residual = 9.82795e-06, Final residual = 8.08207e-07, No Iterations 5
time step continuity errors : sum local = 5.03763e-09, global = 1.04684e-09, cumulative = 0.000252152
smoothSolver:  Solving for nuTilda, Initial residual = 1.35019e-05, Final residual = 1.34106e-06, No Iterations 2
ExecutionTime = 4.88 s  ClockTime = 5 s

Time = 302

smoothSolver:  Solving for Ux, Initial residual = 9.01622e-06, Final residual = 8.56867e-07, No Iterations 2
smoothSolver:  Solving for Uy, Initial residual = 4.09926e-06, Final residual = 1.7726e-07, No Iterations 4
GAMG:  Solving for p, Initial residual = 9.56797e-06, Final residual = 9.64934e-07, No Iterations 4
time step continuity errors : sum local = 6.01458e-09, global = -1.11019e-09, cumulative = 0.000252151
smoothSolver:  Solving for nuTilda, Initial residual = 1.31629e-05, Final residual = 1.31063e-06, No Iterations 2
ExecutionTime = 4.9 s  ClockTime = 5 s

Time = 303

smoothSolver:  Solving for Ux, Initial residual = 8.78646e-06, Final residual = 8.34004e-07, No Iterations 2
smoothSolver:  Solving for Uy, Initial residual = 3.98684e-06, Final residual = 1.71927e-07, No Iterations 4
GAMG:  Solving for p, Initial residual = 9.33057e-06, Final residual = 9.75553e-07, No Iterations 4
time step continuity errors : sum local = 6.08082e-09, global = -1.31168e-09, cumulative = 0.000252149
smoothSolver:  Solving for nuTilda, Initial residual = 1.28306e-05, Final residual = 1.28093e-06, No Iterations 2
ExecutionTime = 4.91 s  ClockTime = 5 s

Time = 304

smoothSolver:  Solving for Ux, Initial residual = 8.55934e-06, Final residual = 8.12433e-07, No Iterations 2
smoothSolver:  Solving for Uy, Initial residual = 3.88236e-06, Final residual = 1.67348e-07, No Iterations 4
GAMG:  Solving for p, Initial residual = 9.13365e-06, Final residual = 9.85008e-07, No Iterations 4
time step continuity errors : sum local = 6.1398e-09, global = -1.41383e-09, cumulative = 0.000252148
smoothSolver:  Solving for nuTilda, Initial residual = 1.25073e-05, Final residual = 3.46049e-07, No Iterations 4
ExecutionTime = 4.92 s  ClockTime = 5 s

Time = 305

smoothSolver:  Solving for Ux, Initial residual = 8.33697e-06, Final residual = 7.91998e-07, No Iterations 2
smoothSolver:  Solving for Uy, Initial residual = 3.7849e-06, Final residual = 1.63317e-07, No Iterations 4
GAMG:  Solving for p, Initial residual = 8.94541e-06, Final residual = 9.75652e-07, No Iterations 4
time step continuity errors : sum local = 6.08153e-09, global = -1.47884e-09, cumulative = 0.000252146
smoothSolver:  Solving for nuTilda, Initial residual = 1.21602e-05, Final residual = 1.20889e-06, No Iterations 2
ExecutionTime = 4.93 s  ClockTime = 5 s

Time = 306

smoothSolver:  Solving for Ux, Initial residual = 8.12045e-06, Final residual = 7.71961e-07, No Iterations 2
smoothSolver:  Solving for Uy, Initial residual = 3.69023e-06, Final residual = 1.59398e-07, No Iterations 4
GAMG:  Solving for p, Initial residual = 8.75762e-06, Final residual = 9.54804e-07, No Iterations 4
time step continuity errors : sum local = 5.95163e-09, global = -1.47487e-09, cumulative = 0.000252145
smoothSolver:  Solving for nuTilda, Initial residual = 1.18537e-05, Final residual = 1.18139e-06, No Iterations 2
ExecutionTime = 4.95 s  ClockTime = 5 s

Time = 307

smoothSolver:  Solving for Ux, Initial residual = 7.91002e-06, Final residual = 7.51914e-07, No Iterations 2
smoothSolver:  Solving for Uy, Initial residual = 3.5953e-06, Final residual = 1.5538e-07, No Iterations 4
GAMG:  Solving for p, Initial residual = 8.56884e-06, Final residual = 9.27058e-07, No Iterations 4
time step continuity errors : sum local = 5.77872e-09, global = -1.44219e-09, cumulative = 0.000252143
smoothSolver:  Solving for nuTilda, Initial residual = 1.15534e-05, Final residual = 1.15457e-06, No Iterations 2
ExecutionTime = 4.96 s  ClockTime = 5 s

Time = 308

smoothSolver:  Solving for Ux, Initial residual = 7.70546e-06, Final residual = 7.3207e-07, No Iterations 2
smoothSolver:  Solving for Uy, Initial residual = 3.50043e-06, Final residual = 1.5129e-07, No Iterations 4
GAMG:  Solving for p, Initial residual = 8.37142e-06, Final residual = 8.99338e-07, No Iterations 4
time step continuity errors : sum local = 5.60597e-09, global = -1.39859e-09, cumulative = 0.000252142
smoothSolver:  Solving for nuTilda, Initial residual = 1.12617e-05, Final residual = 3.1198e-07, No Iterations 4
ExecutionTime = 4.98 s  ClockTime = 5 s

Time = 309

smoothSolver:  Solving for Ux, Initial residual = 7.50644e-06, Final residual = 7.12834e-07, No Iterations 2
smoothSolver:  Solving for Uy, Initial residual = 3.40755e-06, Final residual = 1.47259e-07, No Iterations 4
GAMG:  Solving for p, Initial residual = 8.16644e-06, Final residual = 8.74584e-07, No Iterations 4
time step continuity errors : sum local = 5.4517e-09, global = -1.35604e-09, cumulative = 0.000252141
smoothSolver:  Solving for nuTilda, Initial residual = 1.09493e-05, Final residual = 1.0897e-06, No Iterations 2
ExecutionTime = 5 s  ClockTime = 5 s

Time = 310

smoothSolver:  Solving for Ux, Initial residual = 7.31259e-06, Final residual = 6.94396e-07, No Iterations 2
smoothSolver:  Solving for Uy, Initial residual = 3.31814e-06, Final residual = 1.43377e-07, No Iterations 4
GAMG:  Solving for p, Initial residual = 7.95815e-06, Final residual = 8.50106e-07, No Iterations 4
time step continuity errors : sum local = 5.29916e-09, global = -1.3155e-09, cumulative = 0.000252139
smoothSolver:  Solving for nuTilda, Initial residual = 1.0674e-05, Final residual = 1.06499e-06, No Iterations 2
ExecutionTime = 5.01 s  ClockTime = 5 s

Time = 311

smoothSolver:  Solving for Ux, Initial residual = 7.12371e-06, Final residual = 6.76683e-07, No Iterations 2
smoothSolver:  Solving for Uy, Initial residual = 3.2323e-06, Final residual = 1.39662e-07, No Iterations 4
GAMG:  Solving for p, Initial residual = 7.75362e-06, Final residual = 8.26104e-07, No Iterations 4
time step continuity errors : sum local = 5.14957e-09, global = -1.27919e-09, cumulative = 0.000252138
smoothSolver:  Solving for nuTilda, Initial residual = 1.04052e-05, Final residual = 2.87569e-07, No Iterations 4
ExecutionTime = 5.02 s  ClockTime = 5 s

Time = 312

smoothSolver:  Solving for Ux, Initial residual = 6.93967e-06, Final residual = 6.59479e-07, No Iterations 2
smoothSolver:  Solving for Uy, Initial residual = 3.14918e-06, Final residual = 1.36086e-07, No Iterations 4
GAMG:  Solving for p, Initial residual = 7.55744e-06, Final residual = 8.03771e-07, No Iterations 4
time step continuity errors : sum local = 5.0104e-09, global = -1.24786e-09, cumulative = 0.000252137
smoothSolver:  Solving for nuTilda, Initial residual = 1.01181e-05, Final residual = 1.00521e-06, No Iterations 2
ExecutionTime = 5.03 s  ClockTime = 5 s

Time = 313

smoothSolver:  Solving for Ux, Initial residual = 6.76028e-06, Final residual = 6.42598e-07, No Iterations 2
smoothSolver:  Solving for Uy, Initial residual = 3.06794e-06, Final residual = 1.32606e-07, No Iterations 4
GAMG:  Solving for p, Initial residual = 7.36742e-06, Final residual = 7.82402e-07, No Iterations 4
time step continuity errors : sum local = 4.87722e-09, global = -1.21814e-09, cumulative = 0.000252136
smoothSolver:  Solving for nuTilda, Initial residual = 9.86549e-06, Final residual = 9.82456e-07, No Iterations 2
ExecutionTime = 5.04 s  ClockTime = 5 s


SIMPLE solution converged in 313 iterations

End

